version 3
run Company-Network-0-20240528-23:06:41-15232
attr configname Company-Network
attr datetime 20240528-23:06:41
attr datetimef 20240528-230641
attr experiment Company-Network
attr inifile omnetpp-company-network.ini
attr iterationvars ""
attr iterationvarsd ""
attr iterationvarsf ""
attr measurement ""
attr network CompanyNetwork
attr processid 15232
attr repetition 0
attr replication #0
attr resultdir results/
attr runnumber 0
attr seedset 0
config image-path ../../../samples/inet4.5/images
config **.internet.internetNumWiredTransports 2
config **.internet.numApps 2
config **.internet.app[0].typename ContentDownloadApp
config **.internet.app[0].interContentDownloadInterval "uniform(300.0s, 600.0s)"
config **.internet.app[0].requestedPrefixNames "\"ccnx://company.de/content/\""
config **.internet.app[0].dataNamePrefix "\"info\""
config **.internet.app[0].interestRetransmitTimeout 120s
config **.internet.app[0].nextFileSuffix "intuniform(0, 10)"
config **.internet.app[1].typename ContentHostApp
config **.internet.app[1].hostedPrefixNames "\"ccnx://othercompany.de/info/\""
config **.internet.app[1].dataNamePrefix "\"brochure\""
config **.internet.app[1].segmentSize 1000byte
config **.internet.app[1].numSegmentsPerFile "intuniform(20, 40)"
config **.internet.app[1].cacheTime 2h
config **.justin.numApps 1
config **.justin.app[0].typename ContentDownloadApp
config **.justin.app[0].interContentDownloadInterval "uniform(1800.0s, 3600.0s)"
config **.justin.app[0].requestedPrefixNames "\"ccnx://company.de/sales/\""
config **.justin.app[0].dataNamePrefix "\"report\""
config **.justin.app[0].interestRetransmitTimeout 120s
config **.justin.app[0].nextFileSuffix "intuniform(0, 20)"
config **.primaryRouter.coreRouterNumWiredTransports 5
config **.primaryRouter.fwd.maximumContentStoreSize 742144byte
config **.sMainRouter.coreRouterNumWiredTransports 3
config **.sContent.numApps 2
config **.sContent.app[0].typename ContentHostApp
config **.sContent.app[0].hostedPrefixNames "\"ccnx://company.de/content/\""
config **.sContent.app[0].dataNamePrefix "\"info\""
config **.sContent.app[0].segmentSize 1000byte
config **.sContent.app[0].numSegmentsPerFile "intuniform(5, 20)"
config **.sContent.app[0].cacheTime 2h
config **.sContent.app[1].typename ContentHostApp
config **.sContent.app[1].hostedPrefixNames "\"ccnx://company.de/sales/\""
config **.sContent.app[1].dataNamePrefix "\"report\""
config **.sContent.app[1].segmentSize 1000byte
config **.sContent.app[1].numSegmentsPerFile "intuniform(5, 20)"
config **.sContent.app[1].cacheTime 2h
config **.sRouter.accessRouterNumWiredTransports 4
config **.frank.numApps 1
config **.frank.app[0].typename ContentDownloadApp
config **.frank.app[0].interContentDownloadInterval "uniform(1800.0s, 3600.0s)"
config **.frank.app[0].requestedPrefixNames "\"ccnx://othercompany.de/info/\""
config **.frank.app[0].dataNamePrefix "\"brochure\""
config **.frank.app[0].interestRetransmitTimeout 120s
config **.frank.app[0].nextFileSuffix "intuniform(0, 10)"
config **.thomas.numApps 1
config **.thomas.app[0].typename ContentDownloadApp
config **.thomas.app[0].interContentDownloadInterval "uniform(600.0s, 1200.0s)"
config **.thomas.app[0].requestedPrefixNames "\"ccnx://company.de/warehouse/\""
config **.thomas.app[0].dataNamePrefix "\"stock\""
config **.thomas.app[0].interestRetransmitTimeout 120s
config **.thomas.app[0].nextFileSuffix "intuniform(0, 8)"
config **.sIoTGW.numApps 1
config **.sIoTGW.app[0].typename IoTGatewayApp
config **.sIoTGW.app[0].hostedPrefixName "\"ccnx://company.de/sales/iot/\""
config **.sIoTGW.app[0].hostedPrefixNameForSensorNet "\"ccnx://company.de/sales/gw/\""
config **.sIoTGW.app[0].sensorPrefixName "\"ccnx://company.de/sales/sensornet/\""
config **.sIoTGW.app[0].interestLifetime 3s
config **.sIoTGW.app[0].maximumSensorReadingsToKeep 100
config **.sIoTGW.iotGatewayLoRaWirelessRange 100m
config **.sTemp.numApps 1
config **.sTemp.app[0].typename SensingApp
config **.sTemp.app[0].sensorPrefixName "\"ccnx://company.de/sales/sensornet/\""
config **.sTemp.app[0].gwPrefixName "\"ccnx://company.de/sales/gw/\""
config **.sTemp.app[0].interestLifetime 3s
config **.sTemp.app[0].segmentSize 36byte
config **.sTemp.app[0].numSegmentsPerFile 1
config **.sTemp.app[0].cacheTime 800s
config **.sTemp.app[0].sensedDataTypes "\"temperature\""
config **.sTemp.app[0].temperature "uniform(20.0, 23.0)"
config **.sTemp.app[0].wakeupInterval 300s
config **.sHum.numApps 1
config **.sHum.app[0].typename SensingApp
config **.sHum.app[0].sensorPrefixName "\"ccnx://company.de/sales/sensornet/\""
config **.sHum.app[0].gwPrefixName "\"ccnx://company.de/sales/gw/\""
config **.sHum.app[0].interestLifetime 3s
config **.sHum.app[0].segmentSize 36byte
config **.sHum.app[0].numSegmentsPerFile 1
config **.sHum.app[0].cacheTime 800s
config **.sHum.app[0].sensedDataTypes "\"humidity\""
config **.sHum.app[0].humidity "uniform(50.0, 70.0)"
config **.sHum.app[0].wakeupInterval 300s
config **.whMainRouter.coreRouterNumWiredTransports 5
config **.whContent.numApps 1
config **.whContent.app[0].typename ContentHostApp
config **.whContent.app[0].hostedPrefixNames "\"ccnx://company.de/warehouse/\""
config **.whContent.app[0].dataNamePrefix "\"stock\""
config **.whContent.app[0].segmentSize 1000byte
config **.whContent.app[0].numSegmentsPerFile "intuniform(5, 10)"
config **.whContent.app[0].cacheTime 1h
config **.whRouter.accessRouterNumWiredTransports 2
config **.james.numApps 1
config **.james.app[0].typename ContentDownloadApp
config **.james.app[0].interContentDownloadInterval "uniform(600.0s, 1200.0s)"
config **.james.app[0].requestedPrefixNames "\"ccnx://company.de/warehouse/\""
config **.james.app[0].dataNamePrefix "\"stock\""
config **.james.app[0].interestRetransmitTimeout 120s
config **.james.app[0].nextFileSuffix "intuniform(0, 30)"
config **.whIoTGW.numApps 1
config **.whIoTGW.app[0].typename IoTGatewayApp
config **.whIoTGW.app[0].hostedPrefixName "\"ccnx://company.de/warehouse/iot/\""
config **.whIoTGW.app[0].hostedPrefixNameForSensorNet "\"ccnx://company.de/warehouse/gw/\""
config **.whIoTGW.app[0].sensorPrefixName "\"ccnx://company.de/warehouse/sensornet/\""
config **.whIoTGW.app[0].interestLifetime 3s
config **.whIoTGW.app[0].maximumSensorReadingsToKeep 100
config **.whIoTGW.iotGatewayLoRaWirelessRange 100m
config **.whTemp.numApps 1
config **.whTemp.app[0].typename SensingApp
config **.whTemp.app[0].sensorPrefixName "\"ccnx://company.de/warehouse/sensornet/\""
config **.whTemp.app[0].gwPrefixName "\"ccnx://company.de/warehouse/gw/\""
config **.whTemp.app[0].interestLifetime 3s
config **.whTemp.app[0].segmentSize 36byte
config **.whTemp.app[0].numSegmentsPerFile 1
config **.whTemp.app[0].cacheTime 800s
config **.whTemp.app[0].sensedDataTypes "\"temperature\""
config **.whTemp.app[0].temperature "uniform(20.0, 23.0)"
config **.whTemp.app[0].wakeupInterval 300s
config **.whHum.numApps 1
config **.whHum.app[0].typename SensingApp
config **.whHum.app[0].sensorPrefixName "\"ccnx://company.de/warehouse/sensornet/\""
config **.whHum.app[0].gwPrefixName "\"ccnx://company.de/warehouse/gw/\""
config **.whHum.app[0].interestLifetime 3s
config **.whHum.app[0].segmentSize 36byte
config **.whHum.app[0].numSegmentsPerFile 1
config **.whHum.app[0].cacheTime 800s
config **.whHum.app[0].sensedDataTypes "\"humidity\""
config **.whHum.app[0].humidity "uniform(50.0, 70.0)"
config **.whHum.app[0].wakeupInterval 300s
config **.whAP.wlanWirelessRange 60m
config **.silvia.numApps 1
config **.silvia.app[0].typename ContentDownloadApp
config **.silvia.app[0].interContentDownloadInterval "uniform(100.0s, 150.0s)"
config **.silvia.app[0].requestedPrefixNames "\"ccnx://company.de/warehouse/\""
config **.silvia.app[0].dataNamePrefix "\"stock\""
config **.silvia.app[0].interestRetransmitTimeout 120s
config **.silvia.app[0].nextFileSuffix "intuniform(0, 20)"
config **.silvia.btWirelessRange 20m
config **.silvia.wlanWirelessRange 60m
config **.daniel.numApps 1
config **.daniel.app[0].typename ContentDownloadApp
config **.daniel.app[0].interContentDownloadInterval "uniform(300.0s, 600.0s)"
config **.daniel.app[0].requestedPrefixNames "\"ccnx://company.de/warehouse/\""
config **.daniel.app[0].dataNamePrefix "\"stock\""
config **.daniel.app[0].interestRetransmitTimeout 120s
config **.daniel.app[0].nextFileSuffix "intuniform(20, 80)"
config **.daniel.btWirelessRange 20m
config **.daniel.wlanWirelessRange 60m
config **.uIoTGW.numApps 1
config **.uIoTGW.app[0].typename IoTGatewayApp
config **.uIoTGW.app[0].hostedPrefixName "\"ccnx://company.de/utility/iot/\""
config **.uIoTGW.app[0].hostedPrefixNameForSensorNet "\"ccnx://company.de/utility/gw/\""
config **.uIoTGW.app[0].sensorPrefixName "\"ccnx://company.de/utility/sensornet/\""
config **.uIoTGW.app[0].interestLifetime 3s
config **.uIoTGW.app[0].maximumSensorReadingsToKeep 100
config **.uIoTGW.iotGatewayLoRaWirelessRange 100m
config **.uElec.numApps 1
config **.uElec.app[0].typename SensingApp
config **.uElec.app[0].sensorPrefixName "\"ccnx://company.de/utility/sensornet/\""
config **.uElec.app[0].gwPrefixName "\"ccnx://company.de/utility/gw/\""
config **.uElec.app[0].interestLifetime 3s
config **.uElec.app[0].segmentSize 36byte
config **.uElec.app[0].numSegmentsPerFile 1
config **.uElec.app[0].cacheTime 5400s
config **.uElec.app[0].sensedDataTypes "\"electricity\""
config **.uElec.app[0].electricStart "uniform(9000, 10000)"
config **.uElec.app[0].electricIncrease "uniform(0.004, 0.007)"
config **.uElec.app[0].wakeupInterval 3600s
config **.uWater.numApps 1
config **.uWater.app[0].typename SensingApp
config **.uWater.app[0].sensorPrefixName "\"ccnx://company.de/utility/sensornet/\""
config **.uWater.app[0].gwPrefixName "\"ccnx://company.de/utility/gw/\""
config **.uWater.app[0].interestLifetime 3s
config **.uWater.app[0].segmentSize 36byte
config **.uWater.app[0].numSegmentsPerFile 1
config **.uWater.app[0].cacheTime 5400s
config **.uWater.app[0].sensedDataTypes "\"water\""
config **.uWater.app[0].waterStart "uniform(20000, 30000)"
config **.uWater.app[0].waterIncrease "uniform(0.06, 0.09)"
config **.uWater.app[0].wakeupInterval 3600s
config **.mMainRouter.coreRouterNumWiredTransports 3
config **.mContent.numApps 1
config **.mContent.app[0].typename ContentHostApp
config **.mContent.app[0].hostedPrefixNames "\"ccnx://company.de/maintenance/\""
config **.mContent.app[0].dataNamePrefix "\"manual\""
config **.mContent.app[0].segmentSize 1000byte
config **.mContent.app[0].numSegmentsPerFile "intuniform(5, 10)"
config **.mContent.app[0].cacheTime 24h
config **.mRouter.accessRouterNumWiredTransports 2
config **.denis.numApps 4
config **.denis.app[0].typename ThingsApp
config **.denis.app[0].sensorDataRetrievalStartTime 7200s
config **.denis.app[0].interDataDownloadInterval 1000s
config **.denis.app[0].requestedSensorNetworkPrefixName "\"ccnx://company.de/utility/iot/\""
config **.denis.app[0].interestLifetime 8s
config **.denis.app[0].sensorDataNames "\"electricity;water\""
config **.denis.app[0].nextIndexOfSensorDataToRetrieve "intuniform(0, 1)"
config **.denis.app[0].maxSensorDataReadingsToKeep 100
config **.denis.app[0].maxHopsAllowed 10
config **.denis.app[1].typename ThingsApp
config **.denis.app[1].sensorDataRetrievalStartTime 3600s
config **.denis.app[1].interDataDownloadInterval 600s
config **.denis.app[1].requestedSensorNetworkPrefixName "\"ccnx://company.de/sales/iot/\""
config **.denis.app[1].interestLifetime 8s
config **.denis.app[1].sensorDataNames "\"temperature;humidity\""
config **.denis.app[1].nextIndexOfSensorDataToRetrieve "intuniform(0, 1)"
config **.denis.app[1].maxSensorDataReadingsToKeep 100
config **.denis.app[1].maxHopsAllowed 10
config **.denis.app[2].typename ThingsApp
config **.denis.app[2].sensorDataRetrievalStartTime 3600s
config **.denis.app[2].interDataDownloadInterval 600s
config **.denis.app[2].requestedSensorNetworkPrefixName "\"ccnx://company.de/warehouse/iot/\""
config **.denis.app[2].interestLifetime 8s
config **.denis.app[2].sensorDataNames "\"temperature;humidity\""
config **.denis.app[2].nextIndexOfSensorDataToRetrieve "intuniform(0, 1)"
config **.denis.app[2].maxSensorDataReadingsToKeep 100
config **.denis.app[2].maxHopsAllowed 10
config **.denis.app[3].typename ContentDownloadApp
config **.denis.app[3].interContentDownloadInterval "uniform(3600.0s, 7200.0s)"
config **.denis.app[3].requestedPrefixNames "\"ccnx://company.de/maintenance/\""
config **.denis.app[3].dataNamePrefix "\"manual\""
config **.denis.app[3].interestRetransmitTimeout 120s
config **.denis.app[3].nextFileSuffix "intuniform(0, 30)"
config **.constraintAreaMinX 0m
config **.constraintAreaMinY 0m
config **.constraintAreaMinZ 0m
config **.constraintAreaMaxX 700m
config **.constraintAreaMaxY 400m
config **.constraintAreaMaxZ 0m
config **.updateInterval 1s
config **.initFromDisplayString true
config network CompanyNetwork
config sim-time-limit 48h
config repeat 1
config num-rngs 8
config seed-0-mt 8000
config seed-1-mt 7000
config seed-2-mt 6000
config seed-3-mt 6163382
config seed-4-mt 4000
config seed-5-mt 3000
config seed-6-mt 2000
config seed-7-mt 1000
config **.deus.rng-0 1
config **.numen.rng-0 2
config **.app[*].rng-0 3
config **.fwd.rng-0 4
config **.wired[*].rng-0 5
config **.wireless[*].rng-0 6
config **.mobility.rng-0 7
config result-dir results/
config output-vector-file results//omnetpp-company-network.ini-Company-Network-0.vec
config output-scalar-file results//omnetpp-company-network.ini-Company-Network-0.sca
config **.vector-recording true
config **.scalar-recording true
config **.statistic-recording true
config record-eventlog false
config eventlog-file results//omnetpp-company-network.ini-Company-Network-0.elog

par CompanyNetwork.justin.wiredInOut$o[0].channel typename "\"ned.DatarateChannel\""
par CompanyNetwork.justin.wiredInOut$o[0].channel disabled false
attr mutable ""
par CompanyNetwork.justin.wiredInOut$o[0].channel delay 0s
attr mutable ""
attr unit s
par CompanyNetwork.justin.wiredInOut$o[0].channel datarate 1e+08bps
attr mutable ""
attr unit bps
par CompanyNetwork.justin.wiredInOut$o[0].channel ber 0
attr mutable ""
par CompanyNetwork.justin.wiredInOut$o[0].channel per 0
attr mutable ""
par CompanyNetwork.internet.wiredInOut$o[0].channel typename "\"ned.DatarateChannel\""
par CompanyNetwork.internet.wiredInOut$o[0].channel disabled false
attr mutable ""
par CompanyNetwork.internet.wiredInOut$o[0].channel delay 0s
attr mutable ""
attr unit s
par CompanyNetwork.internet.wiredInOut$o[0].channel datarate 1e+08bps
attr mutable ""
attr unit bps
par CompanyNetwork.internet.wiredInOut$o[0].channel ber 0
attr mutable ""
par CompanyNetwork.internet.wiredInOut$o[0].channel per 0
attr mutable ""
par CompanyNetwork.primaryRouter.wiredInOut$o[0].channel typename "\"ned.DatarateChannel\""
par CompanyNetwork.primaryRouter.wiredInOut$o[0].channel disabled false
attr mutable ""
par CompanyNetwork.primaryRouter.wiredInOut$o[0].channel delay 0s
attr mutable ""
attr unit s
par CompanyNetwork.primaryRouter.wiredInOut$o[0].channel datarate 1e+09bps
attr mutable ""
attr unit bps
par CompanyNetwork.primaryRouter.wiredInOut$o[0].channel ber 0
attr mutable ""
par CompanyNetwork.primaryRouter.wiredInOut$o[0].channel per 0
attr mutable ""
par CompanyNetwork.internet.wiredInOut$o[1].channel typename "\"ned.DatarateChannel\""
par CompanyNetwork.internet.wiredInOut$o[1].channel disabled false
attr mutable ""
par CompanyNetwork.internet.wiredInOut$o[1].channel delay 0s
attr mutable ""
attr unit s
par CompanyNetwork.internet.wiredInOut$o[1].channel datarate 1e+09bps
attr mutable ""
attr unit bps
par CompanyNetwork.internet.wiredInOut$o[1].channel ber 0
attr mutable ""
par CompanyNetwork.internet.wiredInOut$o[1].channel per 0
attr mutable ""
par CompanyNetwork.frank.wiredInOut$o[0].channel typename "\"ned.DatarateChannel\""
par CompanyNetwork.frank.wiredInOut$o[0].channel disabled false
attr mutable ""
par CompanyNetwork.frank.wiredInOut$o[0].channel delay 0s
attr mutable ""
attr unit s
par CompanyNetwork.frank.wiredInOut$o[0].channel datarate 1e+08bps
attr mutable ""
attr unit bps
par CompanyNetwork.frank.wiredInOut$o[0].channel ber 0
attr mutable ""
par CompanyNetwork.frank.wiredInOut$o[0].channel per 0
attr mutable ""
par CompanyNetwork.sRouter.wiredInOut$o[0].channel typename "\"ned.DatarateChannel\""
par CompanyNetwork.sRouter.wiredInOut$o[0].channel disabled false
attr mutable ""
par CompanyNetwork.sRouter.wiredInOut$o[0].channel delay 0s
attr mutable ""
attr unit s
par CompanyNetwork.sRouter.wiredInOut$o[0].channel datarate 1e+08bps
attr mutable ""
attr unit bps
par CompanyNetwork.sRouter.wiredInOut$o[0].channel ber 0
attr mutable ""
par CompanyNetwork.sRouter.wiredInOut$o[0].channel per 0
attr mutable ""
par CompanyNetwork.sRouter.wiredInOut$o[1].channel typename "\"ned.DatarateChannel\""
par CompanyNetwork.sRouter.wiredInOut$o[1].channel disabled false
attr mutable ""
par CompanyNetwork.sRouter.wiredInOut$o[1].channel delay 0s
attr mutable ""
attr unit s
par CompanyNetwork.sRouter.wiredInOut$o[1].channel datarate 1e+08bps
attr mutable ""
attr unit bps
par CompanyNetwork.sRouter.wiredInOut$o[1].channel ber 0
attr mutable ""
par CompanyNetwork.sRouter.wiredInOut$o[1].channel per 0
attr mutable ""
par CompanyNetwork.sMainRouter.wiredInOut$o[0].channel typename "\"ned.DatarateChannel\""
par CompanyNetwork.sMainRouter.wiredInOut$o[0].channel disabled false
attr mutable ""
par CompanyNetwork.sMainRouter.wiredInOut$o[0].channel delay 0s
attr mutable ""
attr unit s
par CompanyNetwork.sMainRouter.wiredInOut$o[0].channel datarate 1e+08bps
attr mutable ""
attr unit bps
par CompanyNetwork.sMainRouter.wiredInOut$o[0].channel ber 0
attr mutable ""
par CompanyNetwork.sMainRouter.wiredInOut$o[0].channel per 0
attr mutable ""
par CompanyNetwork.sMainRouter.wiredInOut$o[1].channel typename "\"ned.DatarateChannel\""
par CompanyNetwork.sMainRouter.wiredInOut$o[1].channel disabled false
attr mutable ""
par CompanyNetwork.sMainRouter.wiredInOut$o[1].channel delay 0s
attr mutable ""
attr unit s
par CompanyNetwork.sMainRouter.wiredInOut$o[1].channel datarate 1e+09bps
attr mutable ""
attr unit bps
par CompanyNetwork.sMainRouter.wiredInOut$o[1].channel ber 0
attr mutable ""
par CompanyNetwork.sMainRouter.wiredInOut$o[1].channel per 0
attr mutable ""
par CompanyNetwork.sContent.wiredInOut$o[0].channel typename "\"ned.DatarateChannel\""
par CompanyNetwork.sContent.wiredInOut$o[0].channel disabled false
attr mutable ""
par CompanyNetwork.sContent.wiredInOut$o[0].channel delay 0s
attr mutable ""
attr unit s
par CompanyNetwork.sContent.wiredInOut$o[0].channel datarate 1e+09bps
attr mutable ""
attr unit bps
par CompanyNetwork.sContent.wiredInOut$o[0].channel ber 0
attr mutable ""
par CompanyNetwork.sContent.wiredInOut$o[0].channel per 0
attr mutable ""
par CompanyNetwork.sIoTGW.wiredInOut$o[0].channel typename "\"ned.DatarateChannel\""
par CompanyNetwork.sIoTGW.wiredInOut$o[0].channel disabled false
attr mutable ""
par CompanyNetwork.sIoTGW.wiredInOut$o[0].channel delay 0s
attr mutable ""
attr unit s
par CompanyNetwork.sIoTGW.wiredInOut$o[0].channel datarate 1e+08bps
attr mutable ""
attr unit bps
par CompanyNetwork.sIoTGW.wiredInOut$o[0].channel ber 0
attr mutable ""
par CompanyNetwork.sIoTGW.wiredInOut$o[0].channel per 0
attr mutable ""
par CompanyNetwork.sRouter.wiredInOut$o[2].channel typename "\"ned.DatarateChannel\""
par CompanyNetwork.sRouter.wiredInOut$o[2].channel disabled false
attr mutable ""
par CompanyNetwork.sRouter.wiredInOut$o[2].channel delay 0s
attr mutable ""
attr unit s
par CompanyNetwork.sRouter.wiredInOut$o[2].channel datarate 1e+08bps
attr mutable ""
attr unit bps
par CompanyNetwork.sRouter.wiredInOut$o[2].channel ber 0
attr mutable ""
par CompanyNetwork.sRouter.wiredInOut$o[2].channel per 0
attr mutable ""
par CompanyNetwork.sMainRouter.wiredInOut$o[2].channel typename "\"ned.DatarateChannel\""
par CompanyNetwork.sMainRouter.wiredInOut$o[2].channel disabled false
attr mutable ""
par CompanyNetwork.sMainRouter.wiredInOut$o[2].channel delay 0s
attr mutable ""
attr unit s
par CompanyNetwork.sMainRouter.wiredInOut$o[2].channel datarate 1e+09bps
attr mutable ""
attr unit bps
par CompanyNetwork.sMainRouter.wiredInOut$o[2].channel ber 0
attr mutable ""
par CompanyNetwork.sMainRouter.wiredInOut$o[2].channel per 0
attr mutable ""
par CompanyNetwork.primaryRouter.wiredInOut$o[1].channel typename "\"ned.DatarateChannel\""
par CompanyNetwork.primaryRouter.wiredInOut$o[1].channel disabled false
attr mutable ""
par CompanyNetwork.primaryRouter.wiredInOut$o[1].channel delay 0s
attr mutable ""
attr unit s
par CompanyNetwork.primaryRouter.wiredInOut$o[1].channel datarate 1e+09bps
attr mutable ""
attr unit bps
par CompanyNetwork.primaryRouter.wiredInOut$o[1].channel ber 0
attr mutable ""
par CompanyNetwork.primaryRouter.wiredInOut$o[1].channel per 0
attr mutable ""
par CompanyNetwork.sRouter.wiredInOut$o[3].channel typename "\"ned.DatarateChannel\""
par CompanyNetwork.sRouter.wiredInOut$o[3].channel disabled false
attr mutable ""
par CompanyNetwork.sRouter.wiredInOut$o[3].channel delay 0s
attr mutable ""
attr unit s
par CompanyNetwork.sRouter.wiredInOut$o[3].channel datarate 1e+08bps
attr mutable ""
attr unit bps
par CompanyNetwork.sRouter.wiredInOut$o[3].channel ber 0
attr mutable ""
par CompanyNetwork.sRouter.wiredInOut$o[3].channel per 0
attr mutable ""
par CompanyNetwork.thomas.wiredInOut$o[0].channel typename "\"ned.DatarateChannel\""
par CompanyNetwork.thomas.wiredInOut$o[0].channel disabled false
attr mutable ""
par CompanyNetwork.thomas.wiredInOut$o[0].channel delay 0s
attr mutable ""
attr unit s
par CompanyNetwork.thomas.wiredInOut$o[0].channel datarate 1e+08bps
attr mutable ""
attr unit bps
par CompanyNetwork.thomas.wiredInOut$o[0].channel ber 0
attr mutable ""
par CompanyNetwork.thomas.wiredInOut$o[0].channel per 0
attr mutable ""
par CompanyNetwork.whMainRouter.wiredInOut$o[0].channel typename "\"ned.DatarateChannel\""
par CompanyNetwork.whMainRouter.wiredInOut$o[0].channel disabled false
attr mutable ""
par CompanyNetwork.whMainRouter.wiredInOut$o[0].channel delay 0s
attr mutable ""
attr unit s
par CompanyNetwork.whMainRouter.wiredInOut$o[0].channel datarate 1e+09bps
attr mutable ""
attr unit bps
par CompanyNetwork.whMainRouter.wiredInOut$o[0].channel ber 0
attr mutable ""
par CompanyNetwork.whMainRouter.wiredInOut$o[0].channel per 0
attr mutable ""
par CompanyNetwork.primaryRouter.wiredInOut$o[2].channel typename "\"ned.DatarateChannel\""
par CompanyNetwork.primaryRouter.wiredInOut$o[2].channel disabled false
attr mutable ""
par CompanyNetwork.primaryRouter.wiredInOut$o[2].channel delay 0s
attr mutable ""
attr unit s
par CompanyNetwork.primaryRouter.wiredInOut$o[2].channel datarate 1e+09bps
attr mutable ""
attr unit bps
par CompanyNetwork.primaryRouter.wiredInOut$o[2].channel ber 0
attr mutable ""
par CompanyNetwork.primaryRouter.wiredInOut$o[2].channel per 0
attr mutable ""
par CompanyNetwork.whIoTGW.wiredInOut$o[0].channel typename "\"ned.DatarateChannel\""
par CompanyNetwork.whIoTGW.wiredInOut$o[0].channel disabled false
attr mutable ""
par CompanyNetwork.whIoTGW.wiredInOut$o[0].channel delay 0s
attr mutable ""
attr unit s
par CompanyNetwork.whIoTGW.wiredInOut$o[0].channel datarate 1e+08bps
attr mutable ""
attr unit bps
par CompanyNetwork.whIoTGW.wiredInOut$o[0].channel ber 0
attr mutable ""
par CompanyNetwork.whIoTGW.wiredInOut$o[0].channel per 0
attr mutable ""
par CompanyNetwork.whMainRouter.wiredInOut$o[1].channel typename "\"ned.DatarateChannel\""
par CompanyNetwork.whMainRouter.wiredInOut$o[1].channel disabled false
attr mutable ""
par CompanyNetwork.whMainRouter.wiredInOut$o[1].channel delay 0s
attr mutable ""
attr unit s
par CompanyNetwork.whMainRouter.wiredInOut$o[1].channel datarate 1e+08bps
attr mutable ""
attr unit bps
par CompanyNetwork.whMainRouter.wiredInOut$o[1].channel ber 0
attr mutable ""
par CompanyNetwork.whMainRouter.wiredInOut$o[1].channel per 0
attr mutable ""
par CompanyNetwork.whMainRouter.wiredInOut$o[2].channel typename "\"ned.DatarateChannel\""
par CompanyNetwork.whMainRouter.wiredInOut$o[2].channel disabled false
attr mutable ""
par CompanyNetwork.whMainRouter.wiredInOut$o[2].channel delay 0s
attr mutable ""
attr unit s
par CompanyNetwork.whMainRouter.wiredInOut$o[2].channel datarate 1e+06bps
attr mutable ""
attr unit bps
par CompanyNetwork.whMainRouter.wiredInOut$o[2].channel ber 0
attr mutable ""
par CompanyNetwork.whMainRouter.wiredInOut$o[2].channel per 0
attr mutable ""
par CompanyNetwork.whContent.wiredInOut$o[0].channel typename "\"ned.DatarateChannel\""
par CompanyNetwork.whContent.wiredInOut$o[0].channel disabled false
attr mutable ""
par CompanyNetwork.whContent.wiredInOut$o[0].channel delay 0s
attr mutable ""
attr unit s
par CompanyNetwork.whContent.wiredInOut$o[0].channel datarate 1e+06bps
attr mutable ""
attr unit bps
par CompanyNetwork.whContent.wiredInOut$o[0].channel ber 0
attr mutable ""
par CompanyNetwork.whContent.wiredInOut$o[0].channel per 0
attr mutable ""
par CompanyNetwork.whAP.wiredInOut$o[0].channel typename "\"ned.DatarateChannel\""
par CompanyNetwork.whAP.wiredInOut$o[0].channel disabled false
attr mutable ""
par CompanyNetwork.whAP.wiredInOut$o[0].channel delay 0s
attr mutable ""
attr unit s
par CompanyNetwork.whAP.wiredInOut$o[0].channel datarate 1e+08bps
attr mutable ""
attr unit bps
par CompanyNetwork.whAP.wiredInOut$o[0].channel ber 0
attr mutable ""
par CompanyNetwork.whAP.wiredInOut$o[0].channel per 0
attr mutable ""
par CompanyNetwork.whMainRouter.wiredInOut$o[3].channel typename "\"ned.DatarateChannel\""
par CompanyNetwork.whMainRouter.wiredInOut$o[3].channel disabled false
attr mutable ""
par CompanyNetwork.whMainRouter.wiredInOut$o[3].channel delay 0s
attr mutable ""
attr unit s
par CompanyNetwork.whMainRouter.wiredInOut$o[3].channel datarate 1e+08bps
attr mutable ""
attr unit bps
par CompanyNetwork.whMainRouter.wiredInOut$o[3].channel ber 0
attr mutable ""
par CompanyNetwork.whMainRouter.wiredInOut$o[3].channel per 0
attr mutable ""
par CompanyNetwork.whRouter.wiredInOut$o[0].channel typename "\"ned.DatarateChannel\""
par CompanyNetwork.whRouter.wiredInOut$o[0].channel disabled false
attr mutable ""
par CompanyNetwork.whRouter.wiredInOut$o[0].channel delay 0s
attr mutable ""
attr unit s
par CompanyNetwork.whRouter.wiredInOut$o[0].channel datarate 1e+08bps
attr mutable ""
attr unit bps
par CompanyNetwork.whRouter.wiredInOut$o[0].channel ber 0
attr mutable ""
par CompanyNetwork.whRouter.wiredInOut$o[0].channel per 0
attr mutable ""
par CompanyNetwork.whMainRouter.wiredInOut$o[4].channel typename "\"ned.DatarateChannel\""
par CompanyNetwork.whMainRouter.wiredInOut$o[4].channel disabled false
attr mutable ""
par CompanyNetwork.whMainRouter.wiredInOut$o[4].channel delay 0s
attr mutable ""
attr unit s
par CompanyNetwork.whMainRouter.wiredInOut$o[4].channel datarate 1e+08bps
attr mutable ""
attr unit bps
par CompanyNetwork.whMainRouter.wiredInOut$o[4].channel ber 0
attr mutable ""
par CompanyNetwork.whMainRouter.wiredInOut$o[4].channel per 0
attr mutable ""
par CompanyNetwork.james.wiredInOut$o[0].channel typename "\"ned.DatarateChannel\""
par CompanyNetwork.james.wiredInOut$o[0].channel disabled false
attr mutable ""
par CompanyNetwork.james.wiredInOut$o[0].channel delay 0s
attr mutable ""
attr unit s
par CompanyNetwork.james.wiredInOut$o[0].channel datarate 1e+08bps
attr mutable ""
attr unit bps
par CompanyNetwork.james.wiredInOut$o[0].channel ber 0
attr mutable ""
par CompanyNetwork.james.wiredInOut$o[0].channel per 0
attr mutable ""
par CompanyNetwork.whRouter.wiredInOut$o[1].channel typename "\"ned.DatarateChannel\""
par CompanyNetwork.whRouter.wiredInOut$o[1].channel disabled false
attr mutable ""
par CompanyNetwork.whRouter.wiredInOut$o[1].channel delay 0s
attr mutable ""
attr unit s
par CompanyNetwork.whRouter.wiredInOut$o[1].channel datarate 1e+08bps
attr mutable ""
attr unit bps
par CompanyNetwork.whRouter.wiredInOut$o[1].channel ber 0
attr mutable ""
par CompanyNetwork.whRouter.wiredInOut$o[1].channel per 0
attr mutable ""
par CompanyNetwork.primaryRouter.wiredInOut$o[3].channel typename "\"ned.DatarateChannel\""
par CompanyNetwork.primaryRouter.wiredInOut$o[3].channel disabled false
attr mutable ""
par CompanyNetwork.primaryRouter.wiredInOut$o[3].channel delay 0s
attr mutable ""
attr unit s
par CompanyNetwork.primaryRouter.wiredInOut$o[3].channel datarate 1e+09bps
attr mutable ""
attr unit bps
par CompanyNetwork.primaryRouter.wiredInOut$o[3].channel ber 0
attr mutable ""
par CompanyNetwork.primaryRouter.wiredInOut$o[3].channel per 0
attr mutable ""
par CompanyNetwork.uIoTGW.wiredInOut$o[0].channel typename "\"ned.DatarateChannel\""
par CompanyNetwork.uIoTGW.wiredInOut$o[0].channel disabled false
attr mutable ""
par CompanyNetwork.uIoTGW.wiredInOut$o[0].channel delay 0s
attr mutable ""
attr unit s
par CompanyNetwork.uIoTGW.wiredInOut$o[0].channel datarate 1e+09bps
attr mutable ""
attr unit bps
par CompanyNetwork.uIoTGW.wiredInOut$o[0].channel ber 0
attr mutable ""
par CompanyNetwork.uIoTGW.wiredInOut$o[0].channel per 0
attr mutable ""
par CompanyNetwork.mMainRouter.wiredInOut$o[0].channel typename "\"ned.DatarateChannel\""
par CompanyNetwork.mMainRouter.wiredInOut$o[0].channel disabled false
attr mutable ""
par CompanyNetwork.mMainRouter.wiredInOut$o[0].channel delay 0s
attr mutable ""
attr unit s
par CompanyNetwork.mMainRouter.wiredInOut$o[0].channel datarate 1e+08bps
attr mutable ""
attr unit bps
par CompanyNetwork.mMainRouter.wiredInOut$o[0].channel ber 0
attr mutable ""
par CompanyNetwork.mMainRouter.wiredInOut$o[0].channel per 0
attr mutable ""
par CompanyNetwork.mRouter.wiredInOut$o[0].channel typename "\"ned.DatarateChannel\""
par CompanyNetwork.mRouter.wiredInOut$o[0].channel disabled false
attr mutable ""
par CompanyNetwork.mRouter.wiredInOut$o[0].channel delay 0s
attr mutable ""
attr unit s
par CompanyNetwork.mRouter.wiredInOut$o[0].channel datarate 1e+08bps
attr mutable ""
attr unit bps
par CompanyNetwork.mRouter.wiredInOut$o[0].channel ber 0
attr mutable ""
par CompanyNetwork.mRouter.wiredInOut$o[0].channel per 0
attr mutable ""
par CompanyNetwork.mRouter.wiredInOut$o[1].channel typename "\"ned.DatarateChannel\""
par CompanyNetwork.mRouter.wiredInOut$o[1].channel disabled false
attr mutable ""
par CompanyNetwork.mRouter.wiredInOut$o[1].channel delay 0s
attr mutable ""
attr unit s
par CompanyNetwork.mRouter.wiredInOut$o[1].channel datarate 1e+08bps
attr mutable ""
attr unit bps
par CompanyNetwork.mRouter.wiredInOut$o[1].channel ber 0
attr mutable ""
par CompanyNetwork.mRouter.wiredInOut$o[1].channel per 0
attr mutable ""
par CompanyNetwork.denis.wiredInOut$o[0].channel typename "\"ned.DatarateChannel\""
par CompanyNetwork.denis.wiredInOut$o[0].channel disabled false
attr mutable ""
par CompanyNetwork.denis.wiredInOut$o[0].channel delay 0s
attr mutable ""
attr unit s
par CompanyNetwork.denis.wiredInOut$o[0].channel datarate 1e+08bps
attr mutable ""
attr unit bps
par CompanyNetwork.denis.wiredInOut$o[0].channel ber 0
attr mutable ""
par CompanyNetwork.denis.wiredInOut$o[0].channel per 0
attr mutable ""
par CompanyNetwork.primaryRouter.wiredInOut$o[4].channel typename "\"ned.DatarateChannel\""
par CompanyNetwork.primaryRouter.wiredInOut$o[4].channel disabled false
attr mutable ""
par CompanyNetwork.primaryRouter.wiredInOut$o[4].channel delay 0s
attr mutable ""
attr unit s
par CompanyNetwork.primaryRouter.wiredInOut$o[4].channel datarate 1e+09bps
attr mutable ""
attr unit bps
par CompanyNetwork.primaryRouter.wiredInOut$o[4].channel ber 0
attr mutable ""
par CompanyNetwork.primaryRouter.wiredInOut$o[4].channel per 0
attr mutable ""
par CompanyNetwork.mMainRouter.wiredInOut$o[1].channel typename "\"ned.DatarateChannel\""
par CompanyNetwork.mMainRouter.wiredInOut$o[1].channel disabled false
attr mutable ""
par CompanyNetwork.mMainRouter.wiredInOut$o[1].channel delay 0s
attr mutable ""
attr unit s
par CompanyNetwork.mMainRouter.wiredInOut$o[1].channel datarate 1e+09bps
attr mutable ""
attr unit bps
par CompanyNetwork.mMainRouter.wiredInOut$o[1].channel ber 0
attr mutable ""
par CompanyNetwork.mMainRouter.wiredInOut$o[1].channel per 0
attr mutable ""
par CompanyNetwork.mContent.wiredInOut$o[0].channel typename "\"ned.DatarateChannel\""
par CompanyNetwork.mContent.wiredInOut$o[0].channel disabled false
attr mutable ""
par CompanyNetwork.mContent.wiredInOut$o[0].channel delay 0s
attr mutable ""
attr unit s
par CompanyNetwork.mContent.wiredInOut$o[0].channel datarate 1e+09bps
attr mutable ""
attr unit bps
par CompanyNetwork.mContent.wiredInOut$o[0].channel ber 0
attr mutable ""
par CompanyNetwork.mContent.wiredInOut$o[0].channel per 0
attr mutable ""
par CompanyNetwork.mMainRouter.wiredInOut$o[2].channel typename "\"ned.DatarateChannel\""
par CompanyNetwork.mMainRouter.wiredInOut$o[2].channel disabled false
attr mutable ""
par CompanyNetwork.mMainRouter.wiredInOut$o[2].channel delay 0s
attr mutable ""
attr unit s
par CompanyNetwork.mMainRouter.wiredInOut$o[2].channel datarate 1e+09bps
attr mutable ""
attr unit bps
par CompanyNetwork.mMainRouter.wiredInOut$o[2].channel ber 0
attr mutable ""
par CompanyNetwork.mMainRouter.wiredInOut$o[2].channel per 0
attr mutable ""
par CompanyNetwork.demiurge typename "\"inbaversim.Demiurge\""
par CompanyNetwork.internet.numen typename "\"inbaversim.Numen\""
par CompanyNetwork.internet.app[0] typename "\"inbaversim.ContentDownloadApp\""
par CompanyNetwork.internet.app[0] interContentDownloadInterval "uniform(300s, 600s)"
attr unit s
par CompanyNetwork.internet.app[0] requestedPrefixNames "\"ccnx://company.de/content/\""
par CompanyNetwork.internet.app[0] dataNamePrefix "\"info\""
par CompanyNetwork.internet.app[0] nextFileSuffix "intuniform(0, 10)"
par CompanyNetwork.internet.app[0] maxHopsAllowed 16
par CompanyNetwork.internet.app[0] interestRetransmitTimeout 120s
attr unit s
par CompanyNetwork.internet.app[1] typename "\"inbaversim.ContentHostApp\""
par CompanyNetwork.internet.app[1] hostedPrefixNames "\"ccnx://othercompany.de/info/\""
par CompanyNetwork.internet.app[1] dataNamePrefix "\"brochure\""
par CompanyNetwork.internet.app[1] segmentSize 1000byte
attr unit byte
par CompanyNetwork.internet.app[1] numSegmentsPerFile "intuniform(20, 40)"
par CompanyNetwork.internet.app[1] cacheTime 7200s
attr unit s
par CompanyNetwork.internet.fwd typename "\"inbaversim.RFC8569Forwarder\""
par CompanyNetwork.internet.fwd maximumContentStoreSize 0byte
attr unit byte
par CompanyNetwork.internet.wired[0] typename "\"inbaversim.WiredTransport\""
par CompanyNetwork.internet.wired[0] wiredTechnology "\"Ethernet\""
par CompanyNetwork.internet.wired[0] dataRate 1e+09bps
attr unit bps
par CompanyNetwork.internet.wired[0] packetErrorRate 0pct
attr unit pct
par CompanyNetwork.internet.wired[0] headerSize 32byte
attr unit byte
par CompanyNetwork.internet.wired[1] typename "\"inbaversim.WiredTransport\""
par CompanyNetwork.internet.wired[1] wiredTechnology "\"Ethernet\""
par CompanyNetwork.internet.wired[1] dataRate 1e+09bps
attr unit bps
par CompanyNetwork.internet.wired[1] packetErrorRate 0pct
attr unit pct
par CompanyNetwork.internet.wired[1] headerSize 32byte
attr unit byte
par CompanyNetwork.internet.mob typename "\"inet.mobility.static.StationaryMobility\""
par CompanyNetwork.internet.mob subjectModule "\"^\""
par CompanyNetwork.internet.mob coordinateSystemModule "\"\""
par CompanyNetwork.internet.mob displayStringTextFormat "\"p: %p\\nv: %v\""
attr mutable ""
par CompanyNetwork.internet.mob updateDisplayString true
par CompanyNetwork.internet.mob constraintAreaMinX 0m
attr unit m
par CompanyNetwork.internet.mob constraintAreaMinY 0m
attr unit m
par CompanyNetwork.internet.mob constraintAreaMinZ 0m
attr unit m
par CompanyNetwork.internet.mob constraintAreaMaxX 700m
attr unit m
par CompanyNetwork.internet.mob constraintAreaMaxY 400m
attr unit m
par CompanyNetwork.internet.mob constraintAreaMaxZ 0m
attr unit m
par CompanyNetwork.internet.mob initialX 600.369m
attr unit m
par CompanyNetwork.internet.mob initialY 304.861m
attr unit m
par CompanyNetwork.internet.mob initialZ 0m
attr unit m
par CompanyNetwork.internet.mob initialLatitude "nan deg"
attr unit deg
par CompanyNetwork.internet.mob initialLongitude "nan deg"
attr unit deg
par CompanyNetwork.internet.mob initialAltitude 0m
attr unit m
par CompanyNetwork.internet.mob initialHeading 0deg
attr unit deg
par CompanyNetwork.internet.mob initialElevation 0deg
attr unit deg
par CompanyNetwork.internet.mob initialBank 0deg
attr unit deg
par CompanyNetwork.internet.mob initFromDisplayString true
par CompanyNetwork.internet.mob updateFromDisplayString true
par CompanyNetwork.internet typename "\"inbaversim.CCNInternet\""
par CompanyNetwork.internet numApps 2
par CompanyNetwork.internet numWiredTransports 2
par CompanyNetwork.internet numWirelessTransports 0
par CompanyNetwork.internet internetNumWiredTransports 2
par CompanyNetwork.internet internetNumWirelessTransports 0
par CompanyNetwork.internet forwarder "\"RFC8569Forwarder\""
par CompanyNetwork.internet ethDataRate 1e+09bps
attr unit bps
par CompanyNetwork.internet ethPacketErrorRate 0pct
attr unit pct
par CompanyNetwork.internet mobility "\"StationaryMobility\""
scalar CompanyNetwork.internet transportTotalWirelessBytesSent:count 0
attr recordingmode count
attr source transportTotalWirelessBytesSent
scalar CompanyNetwork.internet transportTotalWirelessBytesSent:mean nan
attr recordingmode mean
attr source transportTotalWirelessBytesSent
scalar CompanyNetwork.internet transportTotalWirelessBytesSent:sum 0
attr recordingmode sum
attr source transportTotalWirelessBytesSent
scalar CompanyNetwork.internet transportTotalWirlessdBytesReceived:count 0
attr recordingmode count
attr source transportTotalWirlessdBytesReceived
scalar CompanyNetwork.internet transportTotalWirlessdBytesReceived:mean nan
attr recordingmode mean
attr source transportTotalWirlessdBytesReceived
scalar CompanyNetwork.internet transportTotalWirlessdBytesReceived:sum 0
attr recordingmode sum
attr source transportTotalWirlessdBytesReceived
scalar CompanyNetwork.internet transportTotalWiredBytesSent:count 1583
attr recordingmode count
attr source transportTotalWiredBytesSent
scalar CompanyNetwork.internet transportTotalWiredBytesSent:mean 427.65887555275
attr recordingmode mean
attr source transportTotalWiredBytesSent
scalar CompanyNetwork.internet transportTotalWiredBytesSent:sum 676984
attr recordingmode sum
attr source transportTotalWiredBytesSent
scalar CompanyNetwork.internet transportTotalWiredBytesReceived:count 1432
attr recordingmode count
attr source transportTotalWiredBytesReceived
scalar CompanyNetwork.internet transportTotalWiredBytesReceived:mean 342.69273743017
attr recordingmode mean
attr source transportTotalWiredBytesReceived
scalar CompanyNetwork.internet transportTotalWiredBytesReceived:sum 490736
attr recordingmode sum
attr source transportTotalWiredBytesReceived
scalar CompanyNetwork.internet fwdCacheMissRatio:min 0.18449070395678
attr recordingmode min
attr source fwdCacheMissRatio
scalar CompanyNetwork.internet fwdCacheMissRatio:max 1
attr recordingmode max
attr source fwdCacheMissRatio
scalar CompanyNetwork.internet fwdCacheMissRatio:count 6293
attr recordingmode count
attr source fwdCacheMissRatio
scalar CompanyNetwork.internet fwdCacheMissRatio:last 0.18449070395678
attr recordingmode last
attr source fwdCacheMissRatio
scalar CompanyNetwork.internet fwdCacheHitRatio:min 0
attr recordingmode min
attr source fwdCacheHitRatio
scalar CompanyNetwork.internet fwdCacheHitRatio:max 0.81550929604322
attr recordingmode max
attr source fwdCacheHitRatio
scalar CompanyNetwork.internet fwdCacheHitRatio:count 6293
attr recordingmode count
attr source fwdCacheHitRatio
scalar CompanyNetwork.internet fwdCacheHitRatio:last 0.81550929604322
attr recordingmode last
attr source fwdCacheHitRatio
scalar CompanyNetwork.internet fwdPITEntryCount:min 1
attr recordingmode min
attr source fwdPITEntryCount
scalar CompanyNetwork.internet fwdPITEntryCount:max 409
attr recordingmode max
attr source fwdPITEntryCount
scalar CompanyNetwork.internet fwdPITEntryCount:count 1913
attr recordingmode count
attr source fwdPITEntryCount
scalar CompanyNetwork.internet fwdPITEntryCount:mean 255.28332462101
attr recordingmode mean
attr source fwdPITEntryCount
scalar CompanyNetwork.internet fwdPITEntryCount:timeavg 342.59675746974
attr recordingmode timeavg
attr source fwdPITEntryCount
scalar CompanyNetwork.internet fwdPITEntryCount:last 409
attr recordingmode last
attr source fwdPITEntryCount
scalar CompanyNetwork.internet fwdFIBEntryCount:min 1
attr recordingmode min
attr source fwdFIBEntryCount
scalar CompanyNetwork.internet fwdFIBEntryCount:max 2
attr recordingmode max
attr source fwdFIBEntryCount
scalar CompanyNetwork.internet fwdFIBEntryCount:count 3
attr recordingmode count
attr source fwdFIBEntryCount
scalar CompanyNetwork.internet fwdFIBEntryCount:mean 1.6666666666667
attr recordingmode mean
attr source fwdFIBEntryCount
scalar CompanyNetwork.internet fwdFIBEntryCount:timeavg 2
attr recordingmode timeavg
attr source fwdFIBEntryCount
scalar CompanyNetwork.internet fwdFIBEntryCount:last 2
attr recordingmode last
attr source fwdFIBEntryCount
scalar CompanyNetwork.internet fwdCacheRemovalsBytes:count 0
attr recordingmode count
attr source fwdCacheRemovalsBytes
scalar CompanyNetwork.internet fwdCacheRemovalsBytes:mean nan
attr recordingmode mean
attr source fwdCacheRemovalsBytes
scalar CompanyNetwork.internet fwdCacheRemovalsBytes:sum 0
attr recordingmode sum
attr source fwdCacheRemovalsBytes
scalar CompanyNetwork.internet fwdCacheAdditionsBytes:count 752
attr recordingmode count
attr source fwdCacheAdditionsBytes
scalar CompanyNetwork.internet fwdCacheAdditionsBytes:mean 1000
attr recordingmode mean
attr source fwdCacheAdditionsBytes
scalar CompanyNetwork.internet fwdCacheAdditionsBytes:sum 752000
attr recordingmode sum
attr source fwdCacheAdditionsBytes
scalar CompanyNetwork.internet fwdCacheSizeBytes:min 1000
attr recordingmode min
attr source fwdCacheSizeBytes
scalar CompanyNetwork.internet fwdCacheSizeBytes:max 752000
attr recordingmode max
attr source fwdCacheSizeBytes
scalar CompanyNetwork.internet fwdCacheSizeBytes:count 752
attr recordingmode count
attr source fwdCacheSizeBytes
scalar CompanyNetwork.internet fwdCacheSizeBytes:mean 376500
attr recordingmode mean
attr source fwdCacheSizeBytes
scalar CompanyNetwork.internet fwdCacheSizeBytes:timeavg 601975.89628618
attr recordingmode timeavg
attr source fwdCacheSizeBytes
scalar CompanyNetwork.internet fwdCacheSizeBytes:last 752000
attr recordingmode last
attr source fwdCacheSizeBytes
scalar CompanyNetwork.internet fwdTotalContentObjsBytesSent:count 601
attr recordingmode count
attr source fwdTotalContentObjsBytesSent
scalar CompanyNetwork.internet fwdTotalContentObjsBytesSent:mean 1016
attr recordingmode mean
attr source fwdTotalContentObjsBytesSent
scalar CompanyNetwork.internet fwdTotalContentObjsBytesSent:sum 610616
attr recordingmode sum
attr source fwdTotalContentObjsBytesSent
scalar CompanyNetwork.internet fwdTotalInterestRtnsBytesSent:count 0
attr recordingmode count
attr source fwdTotalInterestRtnsBytesSent
scalar CompanyNetwork.internet fwdTotalInterestRtnsBytesSent:mean nan
attr recordingmode mean
attr source fwdTotalInterestRtnsBytesSent
scalar CompanyNetwork.internet fwdTotalInterestRtnsBytesSent:sum 0
attr recordingmode sum
attr source fwdTotalInterestRtnsBytesSent
scalar CompanyNetwork.internet fwdTotalInterestsBytesSent:count 982
attr recordingmode count
attr source fwdTotalInterestsBytesSent
scalar CompanyNetwork.internet fwdTotalInterestsBytesSent:mean 16
attr recordingmode mean
attr source fwdTotalInterestsBytesSent
scalar CompanyNetwork.internet fwdTotalInterestsBytesSent:sum 15712
attr recordingmode sum
attr source fwdTotalInterestsBytesSent
scalar CompanyNetwork.internet fwdTotalContentObjsBytesReceived:count 422
attr recordingmode count
attr source fwdTotalContentObjsBytesReceived
scalar CompanyNetwork.internet fwdTotalContentObjsBytesReceived:mean 1016
attr recordingmode mean
attr source fwdTotalContentObjsBytesReceived
scalar CompanyNetwork.internet fwdTotalContentObjsBytesReceived:sum 428752
attr recordingmode sum
attr source fwdTotalContentObjsBytesReceived
scalar CompanyNetwork.internet fwdTotalInterestRtnsBytesReceived:count 0
attr recordingmode count
attr source fwdTotalInterestRtnsBytesReceived
scalar CompanyNetwork.internet fwdTotalInterestRtnsBytesReceived:mean nan
attr recordingmode mean
attr source fwdTotalInterestRtnsBytesReceived
scalar CompanyNetwork.internet fwdTotalInterestRtnsBytesReceived:sum 0
attr recordingmode sum
attr source fwdTotalInterestRtnsBytesReceived
scalar CompanyNetwork.internet fwdTotalInterestsBytesReceived:count 1010
attr recordingmode count
attr source fwdTotalInterestsBytesReceived
scalar CompanyNetwork.internet fwdTotalInterestsBytesReceived:mean 16
attr recordingmode mean
attr source fwdTotalInterestsBytesReceived
scalar CompanyNetwork.internet fwdTotalInterestsBytesReceived:sum 16160
attr recordingmode sum
attr source fwdTotalInterestsBytesReceived
scalar CompanyNetwork.internet appTotalDataBytesSent:count 330
attr recordingmode count
attr source appTotalDataBytesSent
scalar CompanyNetwork.internet appTotalDataBytesSent:mean 1000
attr recordingmode mean
attr source appTotalDataBytesSent
scalar CompanyNetwork.internet appTotalDataBytesSent:sum 330000
attr recordingmode sum
attr source appTotalDataBytesSent
scalar CompanyNetwork.internet appTotalContentObjsBytesSent:count 330
attr recordingmode count
attr source appTotalContentObjsBytesSent
scalar CompanyNetwork.internet appTotalContentObjsBytesSent:mean 1016
attr recordingmode mean
attr source appTotalContentObjsBytesSent
scalar CompanyNetwork.internet appTotalContentObjsBytesSent:sum 335280
attr recordingmode sum
attr source appTotalContentObjsBytesSent
scalar CompanyNetwork.internet appTotalInterestsBytesReceived:count 330
attr recordingmode count
attr source appTotalInterestsBytesReceived
scalar CompanyNetwork.internet appTotalInterestsBytesReceived:mean 16
attr recordingmode mean
attr source appTotalInterestsBytesReceived
scalar CompanyNetwork.internet appTotalInterestsBytesReceived:sum 5280
attr recordingmode sum
attr source appTotalInterestsBytesReceived
scalar CompanyNetwork.internet appTotalDataBytesReceived:count 5283
attr recordingmode count
attr source appTotalDataBytesReceived
scalar CompanyNetwork.internet appTotalDataBytesReceived:mean 1000
attr recordingmode mean
attr source appTotalDataBytesReceived
scalar CompanyNetwork.internet appTotalDataBytesReceived:sum 5283000
attr recordingmode sum
attr source appTotalDataBytesReceived
scalar CompanyNetwork.internet appTotalContentObjsBytesReceived:count 5283
attr recordingmode count
attr source appTotalContentObjsBytesReceived
scalar CompanyNetwork.internet appTotalContentObjsBytesReceived:mean 1016
attr recordingmode mean
attr source appTotalContentObjsBytesReceived
scalar CompanyNetwork.internet appTotalContentObjsBytesReceived:sum 5367528
attr recordingmode sum
attr source appTotalContentObjsBytesReceived
scalar CompanyNetwork.internet appRetransmissionInterestsBytesSent:count 0
attr recordingmode count
attr source appRetransmissionInterestsBytesSent
scalar CompanyNetwork.internet appRetransmissionInterestsBytesSent:mean nan
attr recordingmode mean
attr source appRetransmissionInterestsBytesSent
scalar CompanyNetwork.internet appRetransmissionInterestsBytesSent:sum 0
attr recordingmode sum
attr source appRetransmissionInterestsBytesSent
scalar CompanyNetwork.internet appTotalInterestsBytesSent:count 5283
attr recordingmode count
attr source appTotalInterestsBytesSent
scalar CompanyNetwork.internet appTotalInterestsBytesSent:mean 16
attr recordingmode mean
attr source appTotalInterestsBytesSent
scalar CompanyNetwork.internet appTotalInterestsBytesSent:sum 84528
attr recordingmode sum
attr source appTotalInterestsBytesSent
scalar CompanyNetwork.internet appSegmentDownloadDuration:min 0
attr recordingmode min
attr source appSegmentDownloadDuration
scalar CompanyNetwork.internet appSegmentDownloadDuration:max 2.6304e-05
attr recordingmode max
attr source appSegmentDownloadDuration
scalar CompanyNetwork.internet appSegmentDownloadDuration:count 5283
attr recordingmode count
attr source appSegmentDownloadDuration
scalar CompanyNetwork.internet appSegmentDownloadDuration:mean 7.5182737081204e-07
attr recordingmode mean
attr source appSegmentDownloadDuration
scalar CompanyNetwork.internet appContentDownloadDuration:min 0
attr recordingmode min
attr source appContentDownloadDuration
scalar CompanyNetwork.internet appContentDownloadDuration:max 0.00052608
attr recordingmode max
attr source appContentDownloadDuration
scalar CompanyNetwork.internet appContentDownloadDuration:count 384
attr recordingmode count
attr source appContentDownloadDuration
scalar CompanyNetwork.internet appContentDownloadDuration:mean 1.03435e-05
attr recordingmode mean
attr source appContentDownloadDuration
par CompanyNetwork.justin.numen typename "\"inbaversim.Numen\""
par CompanyNetwork.justin.app[0] typename "\"inbaversim.ContentDownloadApp\""
par CompanyNetwork.justin.app[0] interContentDownloadInterval "uniform(1800s, 3600s)"
attr unit s
par CompanyNetwork.justin.app[0] requestedPrefixNames "\"ccnx://company.de/sales/\""
par CompanyNetwork.justin.app[0] dataNamePrefix "\"report\""
par CompanyNetwork.justin.app[0] nextFileSuffix "intuniform(0, 20)"
par CompanyNetwork.justin.app[0] maxHopsAllowed 16
par CompanyNetwork.justin.app[0] interestRetransmitTimeout 120s
attr unit s
par CompanyNetwork.justin.fwd typename "\"inbaversim.RFC8569Forwarder\""
par CompanyNetwork.justin.fwd maximumContentStoreSize 0byte
attr unit byte
par CompanyNetwork.justin.wired[0] typename "\"inbaversim.WiredTransport\""
par CompanyNetwork.justin.wired[0] wiredTechnology "\"Ethernet\""
par CompanyNetwork.justin.wired[0] dataRate 1e+06bps
attr unit bps
par CompanyNetwork.justin.wired[0] packetErrorRate 0pct
attr unit pct
par CompanyNetwork.justin.wired[0] headerSize 32byte
attr unit byte
par CompanyNetwork.justin.mob typename "\"inet.mobility.static.StationaryMobility\""
par CompanyNetwork.justin.mob subjectModule "\"^\""
par CompanyNetwork.justin.mob coordinateSystemModule "\"\""
par CompanyNetwork.justin.mob displayStringTextFormat "\"p: %p\\nv: %v\""
attr mutable ""
par CompanyNetwork.justin.mob updateDisplayString true
par CompanyNetwork.justin.mob constraintAreaMinX 0m
attr unit m
par CompanyNetwork.justin.mob constraintAreaMinY 0m
attr unit m
par CompanyNetwork.justin.mob constraintAreaMinZ 0m
attr unit m
par CompanyNetwork.justin.mob constraintAreaMaxX 700m
attr unit m
par CompanyNetwork.justin.mob constraintAreaMaxY 400m
attr unit m
par CompanyNetwork.justin.mob constraintAreaMaxZ 0m
attr unit m
par CompanyNetwork.justin.mob initialX 554.552m
attr unit m
par CompanyNetwork.justin.mob initialY 166.686m
attr unit m
par CompanyNetwork.justin.mob initialZ 0m
attr unit m
par CompanyNetwork.justin.mob initialLatitude "nan deg"
attr unit deg
par CompanyNetwork.justin.mob initialLongitude "nan deg"
attr unit deg
par CompanyNetwork.justin.mob initialAltitude 0m
attr unit m
par CompanyNetwork.justin.mob initialHeading 0deg
attr unit deg
par CompanyNetwork.justin.mob initialElevation 0deg
attr unit deg
par CompanyNetwork.justin.mob initialBank 0deg
attr unit deg
par CompanyNetwork.justin.mob initFromDisplayString true
par CompanyNetwork.justin.mob updateFromDisplayString true
par CompanyNetwork.justin typename "\"inbaversim.WiredNode\""
par CompanyNetwork.justin numApps 1
par CompanyNetwork.justin numWiredTransports 1
par CompanyNetwork.justin numWirelessTransports 0
par CompanyNetwork.justin wiredNodeNumWiredTransports 1
par CompanyNetwork.justin wiredNodeNumWirelessTransports 0
par CompanyNetwork.justin forwarder "\"RFC8569Forwarder\""
par CompanyNetwork.justin ethDataRate 1e+06bps
attr unit bps
par CompanyNetwork.justin ethPacketErrorRate 0pct
attr unit pct
par CompanyNetwork.justin mobility "\"StationaryMobility\""
scalar CompanyNetwork.justin transportTotalWirelessBytesSent:count 0
attr recordingmode count
attr source transportTotalWirelessBytesSent
scalar CompanyNetwork.justin transportTotalWirelessBytesSent:mean nan
attr recordingmode mean
attr source transportTotalWirelessBytesSent
scalar CompanyNetwork.justin transportTotalWirelessBytesSent:sum 0
attr recordingmode sum
attr source transportTotalWirelessBytesSent
scalar CompanyNetwork.justin transportTotalWirlessdBytesReceived:count 0
attr recordingmode count
attr source transportTotalWirlessdBytesReceived
scalar CompanyNetwork.justin transportTotalWirlessdBytesReceived:mean nan
attr recordingmode mean
attr source transportTotalWirlessdBytesReceived
scalar CompanyNetwork.justin transportTotalWirlessdBytesReceived:sum 0
attr recordingmode sum
attr source transportTotalWirlessdBytesReceived
scalar CompanyNetwork.justin transportTotalWiredBytesSent:count 271
attr recordingmode count
attr source transportTotalWiredBytesSent
scalar CompanyNetwork.justin transportTotalWiredBytesSent:mean 48
attr recordingmode mean
attr source transportTotalWiredBytesSent
scalar CompanyNetwork.justin transportTotalWiredBytesSent:sum 13008
attr recordingmode sum
attr source transportTotalWiredBytesSent
scalar CompanyNetwork.justin transportTotalWiredBytesReceived:count 831
attr recordingmode count
attr source transportTotalWiredBytesReceived
scalar CompanyNetwork.justin transportTotalWiredBytesReceived:mean 374.11311672684
attr recordingmode mean
attr source transportTotalWiredBytesReceived
scalar CompanyNetwork.justin transportTotalWiredBytesReceived:sum 310888
attr recordingmode sum
attr source transportTotalWiredBytesReceived
scalar CompanyNetwork.justin fwdCacheMissRatio:min 0.56801093643199
attr recordingmode min
attr source fwdCacheMissRatio
scalar CompanyNetwork.justin fwdCacheMissRatio:max 1
attr recordingmode max
attr source fwdCacheMissRatio
scalar CompanyNetwork.justin fwdCacheMissRatio:count 1463
attr recordingmode count
attr source fwdCacheMissRatio
scalar CompanyNetwork.justin fwdCacheMissRatio:last 0.56801093643199
attr recordingmode last
attr source fwdCacheMissRatio
scalar CompanyNetwork.justin fwdCacheHitRatio:min 0
attr recordingmode min
attr source fwdCacheHitRatio
scalar CompanyNetwork.justin fwdCacheHitRatio:max 0.43198906356801
attr recordingmode max
attr source fwdCacheHitRatio
scalar CompanyNetwork.justin fwdCacheHitRatio:count 1463
attr recordingmode count
attr source fwdCacheHitRatio
scalar CompanyNetwork.justin fwdCacheHitRatio:last 0.43198906356801
attr recordingmode last
attr source fwdCacheHitRatio
scalar CompanyNetwork.justin fwdPITEntryCount:min 1
attr recordingmode min
attr source fwdPITEntryCount
scalar CompanyNetwork.justin fwdPITEntryCount:max 560
attr recordingmode max
attr source fwdPITEntryCount
scalar CompanyNetwork.justin fwdPITEntryCount:count 1102
attr recordingmode count
attr source fwdPITEntryCount
scalar CompanyNetwork.justin fwdPITEntryCount:mean 361.97731397459
attr recordingmode mean
attr source fwdPITEntryCount
scalar CompanyNetwork.justin fwdPITEntryCount:timeavg 489.4142686125
attr recordingmode timeavg
attr source fwdPITEntryCount
scalar CompanyNetwork.justin fwdPITEntryCount:last 560
attr recordingmode last
attr source fwdPITEntryCount
scalar CompanyNetwork.justin fwdFIBEntryCount:min 1
attr recordingmode min
attr source fwdFIBEntryCount
scalar CompanyNetwork.justin fwdFIBEntryCount:max 1
attr recordingmode max
attr source fwdFIBEntryCount
scalar CompanyNetwork.justin fwdFIBEntryCount:count 1
attr recordingmode count
attr source fwdFIBEntryCount
scalar CompanyNetwork.justin fwdFIBEntryCount:mean 1
attr recordingmode mean
attr source fwdFIBEntryCount
scalar CompanyNetwork.justin fwdFIBEntryCount:timeavg 1
attr recordingmode timeavg
attr source fwdFIBEntryCount
scalar CompanyNetwork.justin fwdFIBEntryCount:last 1
attr recordingmode last
attr source fwdFIBEntryCount
scalar CompanyNetwork.justin fwdCacheRemovalsBytes:count 0
attr recordingmode count
attr source fwdCacheRemovalsBytes
scalar CompanyNetwork.justin fwdCacheRemovalsBytes:mean nan
attr recordingmode mean
attr source fwdCacheRemovalsBytes
scalar CompanyNetwork.justin fwdCacheRemovalsBytes:sum 0
attr recordingmode sum
attr source fwdCacheRemovalsBytes
scalar CompanyNetwork.justin fwdCacheAdditionsBytes:count 271
attr recordingmode count
attr source fwdCacheAdditionsBytes
scalar CompanyNetwork.justin fwdCacheAdditionsBytes:mean 1000
attr recordingmode mean
attr source fwdCacheAdditionsBytes
scalar CompanyNetwork.justin fwdCacheAdditionsBytes:sum 271000
attr recordingmode sum
attr source fwdCacheAdditionsBytes
scalar CompanyNetwork.justin fwdCacheSizeBytes:min 1000
attr recordingmode min
attr source fwdCacheSizeBytes
scalar CompanyNetwork.justin fwdCacheSizeBytes:max 271000
attr recordingmode max
attr source fwdCacheSizeBytes
scalar CompanyNetwork.justin fwdCacheSizeBytes:count 271
attr recordingmode count
attr source fwdCacheSizeBytes
scalar CompanyNetwork.justin fwdCacheSizeBytes:mean 136000
attr recordingmode mean
attr source fwdCacheSizeBytes
scalar CompanyNetwork.justin fwdCacheSizeBytes:timeavg 184110.51107843
attr recordingmode timeavg
attr source fwdCacheSizeBytes
scalar CompanyNetwork.justin fwdCacheSizeBytes:last 271000
attr recordingmode last
attr source fwdCacheSizeBytes
scalar CompanyNetwork.justin fwdTotalContentObjsBytesSent:count 0
attr recordingmode count
attr source fwdTotalContentObjsBytesSent
scalar CompanyNetwork.justin fwdTotalContentObjsBytesSent:mean nan
attr recordingmode mean
attr source fwdTotalContentObjsBytesSent
scalar CompanyNetwork.justin fwdTotalContentObjsBytesSent:sum 0
attr recordingmode sum
attr source fwdTotalContentObjsBytesSent
scalar CompanyNetwork.justin fwdTotalInterestRtnsBytesSent:count 0
attr recordingmode count
attr source fwdTotalInterestRtnsBytesSent
scalar CompanyNetwork.justin fwdTotalInterestRtnsBytesSent:mean nan
attr recordingmode mean
attr source fwdTotalInterestRtnsBytesSent
scalar CompanyNetwork.justin fwdTotalInterestRtnsBytesSent:sum 0
attr recordingmode sum
attr source fwdTotalInterestRtnsBytesSent
scalar CompanyNetwork.justin fwdTotalInterestsBytesSent:count 271
attr recordingmode count
attr source fwdTotalInterestsBytesSent
scalar CompanyNetwork.justin fwdTotalInterestsBytesSent:mean 16
attr recordingmode mean
attr source fwdTotalInterestsBytesSent
scalar CompanyNetwork.justin fwdTotalInterestsBytesSent:sum 4336
attr recordingmode sum
attr source fwdTotalInterestsBytesSent
scalar CompanyNetwork.justin fwdTotalContentObjsBytesReceived:count 271
attr recordingmode count
attr source fwdTotalContentObjsBytesReceived
scalar CompanyNetwork.justin fwdTotalContentObjsBytesReceived:mean 1016
attr recordingmode mean
attr source fwdTotalContentObjsBytesReceived
scalar CompanyNetwork.justin fwdTotalContentObjsBytesReceived:sum 275336
attr recordingmode sum
attr source fwdTotalContentObjsBytesReceived
scalar CompanyNetwork.justin fwdTotalInterestRtnsBytesReceived:count 0
attr recordingmode count
attr source fwdTotalInterestRtnsBytesReceived
scalar CompanyNetwork.justin fwdTotalInterestRtnsBytesReceived:mean nan
attr recordingmode mean
attr source fwdTotalInterestRtnsBytesReceived
scalar CompanyNetwork.justin fwdTotalInterestRtnsBytesReceived:sum 0
attr recordingmode sum
attr source fwdTotalInterestRtnsBytesReceived
scalar CompanyNetwork.justin fwdTotalInterestsBytesReceived:count 560
attr recordingmode count
attr source fwdTotalInterestsBytesReceived
scalar CompanyNetwork.justin fwdTotalInterestsBytesReceived:mean 16
attr recordingmode mean
attr source fwdTotalInterestsBytesReceived
scalar CompanyNetwork.justin fwdTotalInterestsBytesReceived:sum 8960
attr recordingmode sum
attr source fwdTotalInterestsBytesReceived
scalar CompanyNetwork.justin appTotalDataBytesSent:count 0
attr recordingmode count
attr source appTotalDataBytesSent
scalar CompanyNetwork.justin appTotalDataBytesSent:mean nan
attr recordingmode mean
attr source appTotalDataBytesSent
scalar CompanyNetwork.justin appTotalDataBytesSent:sum 0
attr recordingmode sum
attr source appTotalDataBytesSent
scalar CompanyNetwork.justin appTotalContentObjsBytesSent:count 0
attr recordingmode count
attr source appTotalContentObjsBytesSent
scalar CompanyNetwork.justin appTotalContentObjsBytesSent:mean nan
attr recordingmode mean
attr source appTotalContentObjsBytesSent
scalar CompanyNetwork.justin appTotalContentObjsBytesSent:sum 0
attr recordingmode sum
attr source appTotalContentObjsBytesSent
scalar CompanyNetwork.justin appTotalInterestsBytesReceived:count 0
attr recordingmode count
attr source appTotalInterestsBytesReceived
scalar CompanyNetwork.justin appTotalInterestsBytesReceived:mean nan
attr recordingmode mean
attr source appTotalInterestsBytesReceived
scalar CompanyNetwork.justin appTotalInterestsBytesReceived:sum 0
attr recordingmode sum
attr source appTotalInterestsBytesReceived
scalar CompanyNetwork.justin appTotalDataBytesReceived:count 903
attr recordingmode count
attr source appTotalDataBytesReceived
scalar CompanyNetwork.justin appTotalDataBytesReceived:mean 1000
attr recordingmode mean
attr source appTotalDataBytesReceived
scalar CompanyNetwork.justin appTotalDataBytesReceived:sum 903000
attr recordingmode sum
attr source appTotalDataBytesReceived
scalar CompanyNetwork.justin appTotalContentObjsBytesReceived:count 903
attr recordingmode count
attr source appTotalContentObjsBytesReceived
scalar CompanyNetwork.justin appTotalContentObjsBytesReceived:mean 1016
attr recordingmode mean
attr source appTotalContentObjsBytesReceived
scalar CompanyNetwork.justin appTotalContentObjsBytesReceived:sum 917448
attr recordingmode sum
attr source appTotalContentObjsBytesReceived
scalar CompanyNetwork.justin appRetransmissionInterestsBytesSent:count 0
attr recordingmode count
attr source appRetransmissionInterestsBytesSent
scalar CompanyNetwork.justin appRetransmissionInterestsBytesSent:mean nan
attr recordingmode mean
attr source appRetransmissionInterestsBytesSent
scalar CompanyNetwork.justin appRetransmissionInterestsBytesSent:sum 0
attr recordingmode sum
attr source appRetransmissionInterestsBytesSent
scalar CompanyNetwork.justin appTotalInterestsBytesSent:count 903
attr recordingmode count
attr source appTotalInterestsBytesSent
scalar CompanyNetwork.justin appTotalInterestsBytesSent:mean 16
attr recordingmode mean
attr source appTotalInterestsBytesSent
scalar CompanyNetwork.justin appTotalInterestsBytesSent:sum 14448
attr recordingmode sum
attr source appTotalInterestsBytesSent
scalar CompanyNetwork.justin appSegmentDownloadDuration:min 0
attr recordingmode min
attr source appSegmentDownloadDuration
scalar CompanyNetwork.justin appSegmentDownloadDuration:max 0.000113984
attr recordingmode max
attr source appSegmentDownloadDuration
scalar CompanyNetwork.justin appSegmentDownloadDuration:count 903
attr recordingmode count
attr source appSegmentDownloadDuration
scalar CompanyNetwork.justin appSegmentDownloadDuration:mean 3.4207822812846e-05
attr recordingmode mean
attr source appSegmentDownloadDuration
scalar CompanyNetwork.justin appContentDownloadDuration:min 0
attr recordingmode min
attr source appContentDownloadDuration
scalar CompanyNetwork.justin appContentDownloadDuration:max 0.00227968
attr recordingmode max
attr source appContentDownloadDuration
scalar CompanyNetwork.justin appContentDownloadDuration:count 64
attr recordingmode count
attr source appContentDownloadDuration
scalar CompanyNetwork.justin appContentDownloadDuration:mean 0.000482651
attr recordingmode mean
attr source appContentDownloadDuration
par CompanyNetwork.primaryRouter.numen typename "\"inbaversim.Numen\""
par CompanyNetwork.primaryRouter.fwd typename "\"inbaversim.RFC8569Forwarder\""
par CompanyNetwork.primaryRouter.fwd maximumContentStoreSize 742144byte
attr unit byte
par CompanyNetwork.primaryRouter.wired[0] typename "\"inbaversim.WiredTransport\""
par CompanyNetwork.primaryRouter.wired[0] wiredTechnology "\"Ethernet\""
par CompanyNetwork.primaryRouter.wired[0] dataRate 1e+06bps
attr unit bps
par CompanyNetwork.primaryRouter.wired[0] packetErrorRate 0pct
attr unit pct
par CompanyNetwork.primaryRouter.wired[0] headerSize 32byte
attr unit byte
par CompanyNetwork.primaryRouter.wired[1] typename "\"inbaversim.WiredTransport\""
par CompanyNetwork.primaryRouter.wired[1] wiredTechnology "\"Ethernet\""
par CompanyNetwork.primaryRouter.wired[1] dataRate 1e+06bps
attr unit bps
par CompanyNetwork.primaryRouter.wired[1] packetErrorRate 0pct
attr unit pct
par CompanyNetwork.primaryRouter.wired[1] headerSize 32byte
attr unit byte
par CompanyNetwork.primaryRouter.wired[2] typename "\"inbaversim.WiredTransport\""
par CompanyNetwork.primaryRouter.wired[2] wiredTechnology "\"Ethernet\""
par CompanyNetwork.primaryRouter.wired[2] dataRate 1e+06bps
attr unit bps
par CompanyNetwork.primaryRouter.wired[2] packetErrorRate 0pct
attr unit pct
par CompanyNetwork.primaryRouter.wired[2] headerSize 32byte
attr unit byte
par CompanyNetwork.primaryRouter.wired[3] typename "\"inbaversim.WiredTransport\""
par CompanyNetwork.primaryRouter.wired[3] wiredTechnology "\"Ethernet\""
par CompanyNetwork.primaryRouter.wired[3] dataRate 1e+06bps
attr unit bps
par CompanyNetwork.primaryRouter.wired[3] packetErrorRate 0pct
attr unit pct
par CompanyNetwork.primaryRouter.wired[3] headerSize 32byte
attr unit byte
par CompanyNetwork.primaryRouter.wired[4] typename "\"inbaversim.WiredTransport\""
par CompanyNetwork.primaryRouter.wired[4] wiredTechnology "\"Ethernet\""
par CompanyNetwork.primaryRouter.wired[4] dataRate 1e+06bps
attr unit bps
par CompanyNetwork.primaryRouter.wired[4] packetErrorRate 0pct
attr unit pct
par CompanyNetwork.primaryRouter.wired[4] headerSize 32byte
attr unit byte
par CompanyNetwork.primaryRouter.mob typename "\"inet.mobility.static.StationaryMobility\""
par CompanyNetwork.primaryRouter.mob subjectModule "\"^\""
par CompanyNetwork.primaryRouter.mob coordinateSystemModule "\"\""
par CompanyNetwork.primaryRouter.mob displayStringTextFormat "\"p: %p\\nv: %v\""
attr mutable ""
par CompanyNetwork.primaryRouter.mob updateDisplayString true
par CompanyNetwork.primaryRouter.mob constraintAreaMinX 0m
attr unit m
par CompanyNetwork.primaryRouter.mob constraintAreaMinY 0m
attr unit m
par CompanyNetwork.primaryRouter.mob constraintAreaMinZ 0m
attr unit m
par CompanyNetwork.primaryRouter.mob constraintAreaMaxX 700m
attr unit m
par CompanyNetwork.primaryRouter.mob constraintAreaMaxY 400m
attr unit m
par CompanyNetwork.primaryRouter.mob constraintAreaMaxZ 0m
attr unit m
par CompanyNetwork.primaryRouter.mob initialX 76.0576m
attr unit m
par CompanyNetwork.primaryRouter.mob initialY 350.278m
attr unit m
par CompanyNetwork.primaryRouter.mob initialZ 0m
attr unit m
par CompanyNetwork.primaryRouter.mob initialLatitude "nan deg"
attr unit deg
par CompanyNetwork.primaryRouter.mob initialLongitude "nan deg"
attr unit deg
par CompanyNetwork.primaryRouter.mob initialAltitude 0m
attr unit m
par CompanyNetwork.primaryRouter.mob initialHeading 0deg
attr unit deg
par CompanyNetwork.primaryRouter.mob initialElevation 0deg
attr unit deg
par CompanyNetwork.primaryRouter.mob initialBank 0deg
attr unit deg
par CompanyNetwork.primaryRouter.mob initFromDisplayString true
par CompanyNetwork.primaryRouter.mob updateFromDisplayString true
par CompanyNetwork.primaryRouter typename "\"inbaversim.CoreRouter\""
par CompanyNetwork.primaryRouter numApps 0
par CompanyNetwork.primaryRouter numWiredTransports 5
par CompanyNetwork.primaryRouter numWirelessTransports 0
par CompanyNetwork.primaryRouter coreRouterNumWiredTransports 5
par CompanyNetwork.primaryRouter coreRouterNumWirelessTransports 0
par CompanyNetwork.primaryRouter forwarder "\"RFC8569Forwarder\""
par CompanyNetwork.primaryRouter ethDataRate 1e+06bps
attr unit bps
par CompanyNetwork.primaryRouter ethPacketErrorRate 0pct
attr unit pct
par CompanyNetwork.primaryRouter mobility "\"StationaryMobility\""
scalar CompanyNetwork.primaryRouter transportTotalWirelessBytesSent:count 0
attr recordingmode count
attr source transportTotalWirelessBytesSent
scalar CompanyNetwork.primaryRouter transportTotalWirelessBytesSent:mean nan
attr recordingmode mean
attr source transportTotalWirelessBytesSent
scalar CompanyNetwork.primaryRouter transportTotalWirelessBytesSent:sum 0
attr recordingmode sum
attr source transportTotalWirelessBytesSent
scalar CompanyNetwork.primaryRouter transportTotalWirlessdBytesReceived:count 0
attr recordingmode count
attr source transportTotalWirlessdBytesReceived
scalar CompanyNetwork.primaryRouter transportTotalWirlessdBytesReceived:mean nan
attr recordingmode mean
attr source transportTotalWirlessdBytesReceived
scalar CompanyNetwork.primaryRouter transportTotalWirlessdBytesReceived:sum 0
attr recordingmode sum
attr source transportTotalWirlessdBytesReceived
scalar CompanyNetwork.primaryRouter transportTotalWiredBytesSent:count 5414
attr recordingmode count
attr source transportTotalWiredBytesSent
scalar CompanyNetwork.primaryRouter transportTotalWiredBytesSent:mean 189.51163649797
attr recordingmode mean
attr source transportTotalWiredBytesSent
scalar CompanyNetwork.primaryRouter transportTotalWiredBytesSent:sum 1026016
attr recordingmode sum
attr source transportTotalWiredBytesSent
scalar CompanyNetwork.primaryRouter transportTotalWiredBytesReceived:count 1931
attr recordingmode count
attr source transportTotalWiredBytesReceived
scalar CompanyNetwork.primaryRouter transportTotalWiredBytesReceived:mean 444.76022786121
attr recordingmode mean
attr source transportTotalWiredBytesReceived
scalar CompanyNetwork.primaryRouter transportTotalWiredBytesReceived:sum 858832
attr recordingmode sum
attr source transportTotalWiredBytesReceived
scalar CompanyNetwork.primaryRouter fwdCacheMissRatio:min 1
attr recordingmode min
attr source fwdCacheMissRatio
scalar CompanyNetwork.primaryRouter fwdCacheMissRatio:max 1
attr recordingmode max
attr source fwdCacheMissRatio
scalar CompanyNetwork.primaryRouter fwdCacheMissRatio:count 1161
attr recordingmode count
attr source fwdCacheMissRatio
scalar CompanyNetwork.primaryRouter fwdCacheMissRatio:last 1
attr recordingmode last
attr source fwdCacheMissRatio
scalar CompanyNetwork.primaryRouter fwdCacheHitRatio:min 0
attr recordingmode min
attr source fwdCacheHitRatio
scalar CompanyNetwork.primaryRouter fwdCacheHitRatio:max 0
attr recordingmode max
attr source fwdCacheHitRatio
scalar CompanyNetwork.primaryRouter fwdCacheHitRatio:count 1161
attr recordingmode count
attr source fwdCacheHitRatio
scalar CompanyNetwork.primaryRouter fwdCacheHitRatio:last 0
attr recordingmode last
attr source fwdCacheHitRatio
scalar CompanyNetwork.primaryRouter fwdPITEntryCount:min 1
attr recordingmode min
attr source fwdPITEntryCount
scalar CompanyNetwork.primaryRouter fwdPITEntryCount:max 391
attr recordingmode max
attr source fwdPITEntryCount
scalar CompanyNetwork.primaryRouter fwdPITEntryCount:count 1931
attr recordingmode count
attr source fwdPITEntryCount
scalar CompanyNetwork.primaryRouter fwdPITEntryCount:mean 238.39461418954
attr recordingmode mean
attr source fwdPITEntryCount
scalar CompanyNetwork.primaryRouter fwdPITEntryCount:timeavg 324.84224568945
attr recordingmode timeavg
attr source fwdPITEntryCount
scalar CompanyNetwork.primaryRouter fwdPITEntryCount:last 391
attr recordingmode last
attr source fwdPITEntryCount
scalar CompanyNetwork.primaryRouter fwdFIBEntryCount:min 1
attr recordingmode min
attr source fwdFIBEntryCount
scalar CompanyNetwork.primaryRouter fwdFIBEntryCount:max 1
attr recordingmode max
attr source fwdFIBEntryCount
scalar CompanyNetwork.primaryRouter fwdFIBEntryCount:count 5
attr recordingmode count
attr source fwdFIBEntryCount
scalar CompanyNetwork.primaryRouter fwdFIBEntryCount:mean 1
attr recordingmode mean
attr source fwdFIBEntryCount
scalar CompanyNetwork.primaryRouter fwdFIBEntryCount:timeavg 1
attr recordingmode timeavg
attr source fwdFIBEntryCount
scalar CompanyNetwork.primaryRouter fwdFIBEntryCount:last 1
attr recordingmode last
attr source fwdFIBEntryCount
scalar CompanyNetwork.primaryRouter fwdCacheRemovalsBytes:count 24
attr recordingmode count
attr source fwdCacheRemovalsBytes
scalar CompanyNetwork.primaryRouter fwdCacheRemovalsBytes:mean 1000
attr recordingmode mean
attr source fwdCacheRemovalsBytes
scalar CompanyNetwork.primaryRouter fwdCacheRemovalsBytes:sum 24000
attr recordingmode sum
attr source fwdCacheRemovalsBytes
scalar CompanyNetwork.primaryRouter fwdCacheAdditionsBytes:count 770
attr recordingmode count
attr source fwdCacheAdditionsBytes
scalar CompanyNetwork.primaryRouter fwdCacheAdditionsBytes:mean 994.99220779221
attr recordingmode mean
attr source fwdCacheAdditionsBytes
scalar CompanyNetwork.primaryRouter fwdCacheAdditionsBytes:sum 766144
attr recordingmode sum
attr source fwdCacheAdditionsBytes
scalar CompanyNetwork.primaryRouter fwdCacheSizeBytes:min 1000
attr recordingmode min
attr source fwdCacheSizeBytes
scalar CompanyNetwork.primaryRouter fwdCacheSizeBytes:max 742144
attr recordingmode max
attr source fwdCacheSizeBytes
scalar CompanyNetwork.primaryRouter fwdCacheSizeBytes:count 794
attr recordingmode count
attr source fwdCacheSizeBytes
scalar CompanyNetwork.primaryRouter fwdCacheSizeBytes:mean 393029.88916877
attr recordingmode mean
attr source fwdCacheSizeBytes
scalar CompanyNetwork.primaryRouter fwdCacheSizeBytes:timeavg 612129.24410832
attr recordingmode timeavg
attr source fwdCacheSizeBytes
scalar CompanyNetwork.primaryRouter fwdCacheSizeBytes:last 742144
attr recordingmode last
attr source fwdCacheSizeBytes
scalar CompanyNetwork.primaryRouter fwdTotalContentObjsBytesSent:count 770
attr recordingmode count
attr source fwdTotalContentObjsBytesSent
scalar CompanyNetwork.primaryRouter fwdTotalContentObjsBytesSent:mean 1010.9922077922
attr recordingmode mean
attr source fwdTotalContentObjsBytesSent
scalar CompanyNetwork.primaryRouter fwdTotalContentObjsBytesSent:sum 778464
attr recordingmode sum
attr source fwdTotalContentObjsBytesSent
scalar CompanyNetwork.primaryRouter fwdTotalInterestRtnsBytesSent:count 0
attr recordingmode count
attr source fwdTotalInterestRtnsBytesSent
scalar CompanyNetwork.primaryRouter fwdTotalInterestRtnsBytesSent:mean nan
attr recordingmode mean
attr source fwdTotalInterestRtnsBytesSent
scalar CompanyNetwork.primaryRouter fwdTotalInterestRtnsBytesSent:sum 0
attr recordingmode sum
attr source fwdTotalInterestRtnsBytesSent
scalar CompanyNetwork.primaryRouter fwdTotalInterestsBytesSent:count 4644
attr recordingmode count
attr source fwdTotalInterestsBytesSent
scalar CompanyNetwork.primaryRouter fwdTotalInterestsBytesSent:mean 16
attr recordingmode mean
attr source fwdTotalInterestsBytesSent
scalar CompanyNetwork.primaryRouter fwdTotalInterestsBytesSent:sum 74304
attr recordingmode sum
attr source fwdTotalInterestsBytesSent
scalar CompanyNetwork.primaryRouter fwdTotalContentObjsBytesReceived:count 770
attr recordingmode count
attr source fwdTotalContentObjsBytesReceived
scalar CompanyNetwork.primaryRouter fwdTotalContentObjsBytesReceived:mean 1010.9922077922
attr recordingmode mean
attr source fwdTotalContentObjsBytesReceived
scalar CompanyNetwork.primaryRouter fwdTotalContentObjsBytesReceived:sum 778464
attr recordingmode sum
attr source fwdTotalContentObjsBytesReceived
scalar CompanyNetwork.primaryRouter fwdTotalInterestRtnsBytesReceived:count 0
attr recordingmode count
attr source fwdTotalInterestRtnsBytesReceived
scalar CompanyNetwork.primaryRouter fwdTotalInterestRtnsBytesReceived:mean nan
attr recordingmode mean
attr source fwdTotalInterestRtnsBytesReceived
scalar CompanyNetwork.primaryRouter fwdTotalInterestRtnsBytesReceived:sum 0
attr recordingmode sum
attr source fwdTotalInterestRtnsBytesReceived
scalar CompanyNetwork.primaryRouter fwdTotalInterestsBytesReceived:count 1161
attr recordingmode count
attr source fwdTotalInterestsBytesReceived
scalar CompanyNetwork.primaryRouter fwdTotalInterestsBytesReceived:mean 16
attr recordingmode mean
attr source fwdTotalInterestsBytesReceived
scalar CompanyNetwork.primaryRouter fwdTotalInterestsBytesReceived:sum 18576
attr recordingmode sum
attr source fwdTotalInterestsBytesReceived
scalar CompanyNetwork.primaryRouter appTotalDataBytesSent:count 0
attr recordingmode count
attr source appTotalDataBytesSent
scalar CompanyNetwork.primaryRouter appTotalDataBytesSent:mean nan
attr recordingmode mean
attr source appTotalDataBytesSent
scalar CompanyNetwork.primaryRouter appTotalDataBytesSent:sum 0
attr recordingmode sum
attr source appTotalDataBytesSent
scalar CompanyNetwork.primaryRouter appTotalContentObjsBytesSent:count 0
attr recordingmode count
attr source appTotalContentObjsBytesSent
scalar CompanyNetwork.primaryRouter appTotalContentObjsBytesSent:mean nan
attr recordingmode mean
attr source appTotalContentObjsBytesSent
scalar CompanyNetwork.primaryRouter appTotalContentObjsBytesSent:sum 0
attr recordingmode sum
attr source appTotalContentObjsBytesSent
scalar CompanyNetwork.primaryRouter appTotalInterestsBytesReceived:count 0
attr recordingmode count
attr source appTotalInterestsBytesReceived
scalar CompanyNetwork.primaryRouter appTotalInterestsBytesReceived:mean nan
attr recordingmode mean
attr source appTotalInterestsBytesReceived
scalar CompanyNetwork.primaryRouter appTotalInterestsBytesReceived:sum 0
attr recordingmode sum
attr source appTotalInterestsBytesReceived
scalar CompanyNetwork.primaryRouter appTotalDataBytesReceived:count 0
attr recordingmode count
attr source appTotalDataBytesReceived
scalar CompanyNetwork.primaryRouter appTotalDataBytesReceived:mean nan
attr recordingmode mean
attr source appTotalDataBytesReceived
scalar CompanyNetwork.primaryRouter appTotalDataBytesReceived:sum 0
attr recordingmode sum
attr source appTotalDataBytesReceived
scalar CompanyNetwork.primaryRouter appTotalContentObjsBytesReceived:count 0
attr recordingmode count
attr source appTotalContentObjsBytesReceived
scalar CompanyNetwork.primaryRouter appTotalContentObjsBytesReceived:mean nan
attr recordingmode mean
attr source appTotalContentObjsBytesReceived
scalar CompanyNetwork.primaryRouter appTotalContentObjsBytesReceived:sum 0
attr recordingmode sum
attr source appTotalContentObjsBytesReceived
[...]
scalar CompanyNetwork.mContent appRetransmissionInterestsBytesSent:count 0
attr recordingmode count
attr source appRetransmissionInterestsBytesSent
scalar CompanyNetwork.mContent appRetransmissionInterestsBytesSent:mean nan
attr recordingmode mean
attr source appRetransmissionInterestsBytesSent
scalar CompanyNetwork.mContent appRetransmissionInterestsBytesSent:sum 0
attr recordingmode sum
attr source appRetransmissionInterestsBytesSent
scalar CompanyNetwork.mContent appTotalInterestsBytesSent:count 0
attr recordingmode count
attr source appTotalInterestsBytesSent
scalar CompanyNetwork.mContent appTotalInterestsBytesSent:mean nan
attr recordingmode mean
attr source appTotalInterestsBytesSent
scalar CompanyNetwork.mContent appTotalInterestsBytesSent:sum 0
attr recordingmode sum
attr source appTotalInterestsBytesSent
scalar CompanyNetwork.mContent appSegmentDownloadDuration:min nan
attr recordingmode min
attr source appSegmentDownloadDuration
scalar CompanyNetwork.mContent appSegmentDownloadDuration:max nan
attr recordingmode max
attr source appSegmentDownloadDuration
scalar CompanyNetwork.mContent appSegmentDownloadDuration:count 0
attr recordingmode count
attr source appSegmentDownloadDuration
scalar CompanyNetwork.mContent appSegmentDownloadDuration:mean nan
attr recordingmode mean
attr source appSegmentDownloadDuration
scalar CompanyNetwork.mContent appContentDownloadDuration:min nan
attr recordingmode min
attr source appContentDownloadDuration
scalar CompanyNetwork.mContent appContentDownloadDuration:max nan
attr recordingmode max
attr source appContentDownloadDuration
scalar CompanyNetwork.mContent appContentDownloadDuration:count 0
attr recordingmode count
attr source appContentDownloadDuration
scalar CompanyNetwork.mContent appContentDownloadDuration:mean nan
attr recordingmode mean
attr source appContentDownloadDuration
par CompanyNetwork.denis.numen typename "\"inbaversim.Numen\""
par CompanyNetwork.denis.app[0] typename "\"inbaversim.ThingsApp\""
par CompanyNetwork.denis.app[0] sensorDataRetrievalStartTime 7200s
attr unit s
par CompanyNetwork.denis.app[0] interDataDownloadInterval 1000s
attr unit s
par CompanyNetwork.denis.app[0] requestedSensorNetworkPrefixName "\"ccnx://company.de/utility/iot/\""
par CompanyNetwork.denis.app[0] interestLifetime 8s
attr unit s
par CompanyNetwork.denis.app[0] sensorDataNames "\"electricity;water\""
par CompanyNetwork.denis.app[0] nextIndexOfSensorDataToRetrieve "intuniform(0, 1)"
par CompanyNetwork.denis.app[0] maxSensorDataReadingsToKeep 100
par CompanyNetwork.denis.app[0] maxHopsAllowed 10
par CompanyNetwork.denis.app[1] typename "\"inbaversim.ThingsApp\""
par CompanyNetwork.denis.app[1] sensorDataRetrievalStartTime 3600s
attr unit s
par CompanyNetwork.denis.app[1] interDataDownloadInterval 600s
attr unit s
par CompanyNetwork.denis.app[1] requestedSensorNetworkPrefixName "\"ccnx://company.de/sales/iot/\""
par CompanyNetwork.denis.app[1] interestLifetime 8s
attr unit s
par CompanyNetwork.denis.app[1] sensorDataNames "\"temperature;humidity\""
par CompanyNetwork.denis.app[1] nextIndexOfSensorDataToRetrieve "intuniform(0, 1)"
par CompanyNetwork.denis.app[1] maxSensorDataReadingsToKeep 100
par CompanyNetwork.denis.app[1] maxHopsAllowed 10
par CompanyNetwork.denis.app[2] typename "\"inbaversim.ThingsApp\""
par CompanyNetwork.denis.app[2] sensorDataRetrievalStartTime 3600s
attr unit s
par CompanyNetwork.denis.app[2] interDataDownloadInterval 600s
attr unit s
par CompanyNetwork.denis.app[2] requestedSensorNetworkPrefixName "\"ccnx://company.de/warehouse/iot/\""
par CompanyNetwork.denis.app[2] interestLifetime 8s
attr unit s
par CompanyNetwork.denis.app[2] sensorDataNames "\"temperature;humidity\""
par CompanyNetwork.denis.app[2] nextIndexOfSensorDataToRetrieve "intuniform(0, 1)"
par CompanyNetwork.denis.app[2] maxSensorDataReadingsToKeep 100
par CompanyNetwork.denis.app[2] maxHopsAllowed 10
par CompanyNetwork.denis.app[3] typename "\"inbaversim.ContentDownloadApp\""
par CompanyNetwork.denis.app[3] interContentDownloadInterval "uniform(3600s, 7200s)"
attr unit s
par CompanyNetwork.denis.app[3] requestedPrefixNames "\"ccnx://company.de/maintenance/\""
par CompanyNetwork.denis.app[3] dataNamePrefix "\"manual\""
par CompanyNetwork.denis.app[3] nextFileSuffix "intuniform(0, 30)"
par CompanyNetwork.denis.app[3] maxHopsAllowed 16
par CompanyNetwork.denis.app[3] interestRetransmitTimeout 120s
attr unit s
par CompanyNetwork.denis.fwd typename "\"inbaversim.RFC8569Forwarder\""
par CompanyNetwork.denis.fwd maximumContentStoreSize 0byte
attr unit byte
par CompanyNetwork.denis.wired[0] typename "\"inbaversim.WiredTransport\""
par CompanyNetwork.denis.wired[0] wiredTechnology "\"Ethernet\""
par CompanyNetwork.denis.wired[0] dataRate 1e+06bps
attr unit bps
par CompanyNetwork.denis.wired[0] packetErrorRate 0pct
attr unit pct
par CompanyNetwork.denis.wired[0] headerSize 32byte
attr unit byte
par CompanyNetwork.denis.mob typename "\"inet.mobility.static.StationaryMobility\""
par CompanyNetwork.denis.mob subjectModule "\"^\""
par CompanyNetwork.denis.mob coordinateSystemModule "\"\""
par CompanyNetwork.denis.mob displayStringTextFormat "\"p: %p\\nv: %v\""
attr mutable ""
par CompanyNetwork.denis.mob updateDisplayString true
par CompanyNetwork.denis.mob constraintAreaMinX 0m
attr unit m
par CompanyNetwork.denis.mob constraintAreaMinY 0m
attr unit m
par CompanyNetwork.denis.mob constraintAreaMinZ 0m
attr unit m
par CompanyNetwork.denis.mob constraintAreaMaxX 700m
attr unit m
par CompanyNetwork.denis.mob constraintAreaMaxY 400m
attr unit m
par CompanyNetwork.denis.mob constraintAreaMaxZ 0m
attr unit m
par CompanyNetwork.denis.mob initialX 505.312m
attr unit m
par CompanyNetwork.denis.mob initialY 320.739m
attr unit m
par CompanyNetwork.denis.mob initialZ 0m
attr unit m
par CompanyNetwork.denis.mob initialLatitude "nan deg"
attr unit deg
par CompanyNetwork.denis.mob initialLongitude "nan deg"
attr unit deg
par CompanyNetwork.denis.mob initialAltitude 0m
attr unit m
par CompanyNetwork.denis.mob initialHeading 0deg
attr unit deg
par CompanyNetwork.denis.mob initialElevation 0deg
attr unit deg
par CompanyNetwork.denis.mob initialBank 0deg
attr unit deg
par CompanyNetwork.denis.mob initFromDisplayString true
par CompanyNetwork.denis.mob updateFromDisplayString true
par CompanyNetwork.denis typename "\"inbaversim.WiredNode\""
par CompanyNetwork.denis numApps 4
par CompanyNetwork.denis numWiredTransports 1
par CompanyNetwork.denis numWirelessTransports 0
par CompanyNetwork.denis wiredNodeNumWiredTransports 1
par CompanyNetwork.denis wiredNodeNumWirelessTransports 0
par CompanyNetwork.denis forwarder "\"RFC8569Forwarder\""
par CompanyNetwork.denis ethDataRate 1e+06bps
attr unit bps
par CompanyNetwork.denis ethPacketErrorRate 0pct
attr unit pct
par CompanyNetwork.denis mobility "\"StationaryMobility\""
scalar CompanyNetwork.denis transportTotalWirelessBytesSent:count 0
attr recordingmode count
attr source transportTotalWirelessBytesSent
scalar CompanyNetwork.denis transportTotalWirelessBytesSent:mean nan
attr recordingmode mean
attr source transportTotalWirelessBytesSent
scalar CompanyNetwork.denis transportTotalWirelessBytesSent:sum 0
attr recordingmode sum
attr source transportTotalWirelessBytesSent
scalar CompanyNetwork.denis transportTotalWirlessdBytesReceived:count 0
attr recordingmode count
attr source transportTotalWirlessdBytesReceived
scalar CompanyNetwork.denis transportTotalWirlessdBytesReceived:mean nan
attr recordingmode mean
attr source transportTotalWirlessdBytesReceived
scalar CompanyNetwork.denis transportTotalWirlessdBytesReceived:sum 0
attr recordingmode sum
attr source transportTotalWirlessdBytesReceived
scalar CompanyNetwork.denis transportTotalWiredBytesSent:count 146
attr recordingmode count
attr source transportTotalWiredBytesSent
scalar CompanyNetwork.denis transportTotalWiredBytesSent:mean 48
attr recordingmode mean
attr source transportTotalWiredBytesSent
scalar CompanyNetwork.denis transportTotalWiredBytesSent:sum 7008
attr recordingmode sum
attr source transportTotalWiredBytesSent
scalar CompanyNetwork.denis transportTotalWiredBytesReceived:count 1161
attr recordingmode count
attr source transportTotalWiredBytesReceived
scalar CompanyNetwork.denis transportTotalWiredBytesReceived:mean 170.43238587425
attr recordingmode mean
attr source transportTotalWiredBytesReceived
scalar CompanyNetwork.denis transportTotalWiredBytesReceived:sum 197872
attr recordingmode sum
attr source transportTotalWiredBytesReceived
scalar CompanyNetwork.denis fwdCacheMissRatio:min 0.58904109589041
attr recordingmode min
attr source fwdCacheMissRatio
scalar CompanyNetwork.denis fwdCacheMissRatio:max 1
attr recordingmode max
attr source fwdCacheMissRatio
scalar CompanyNetwork.denis fwdCacheMissRatio:count 1971
attr recordingmode count
attr source fwdCacheMissRatio
scalar CompanyNetwork.denis fwdCacheMissRatio:last 0.58904109589041
attr recordingmode last
attr source fwdCacheMissRatio
scalar CompanyNetwork.denis fwdCacheHitRatio:min 0
attr recordingmode min
attr source fwdCacheHitRatio
scalar CompanyNetwork.denis fwdCacheHitRatio:max 0.41095890410959
attr recordingmode max
attr source fwdCacheHitRatio
scalar CompanyNetwork.denis fwdCacheHitRatio:count 1971
attr recordingmode count
attr source fwdCacheHitRatio
scalar CompanyNetwork.denis fwdCacheHitRatio:last 0.41095890410959
attr recordingmode last
attr source fwdCacheHitRatio
scalar CompanyNetwork.denis fwdPITEntryCount:min 1
attr recordingmode min
attr source fwdPITEntryCount
scalar CompanyNetwork.denis fwdPITEntryCount:max 1016
attr recordingmode max
attr source fwdPITEntryCount
scalar CompanyNetwork.denis fwdPITEntryCount:count 1307
attr recordingmode count
attr source fwdPITEntryCount
scalar CompanyNetwork.denis fwdPITEntryCount:mean 576.72685539403
attr recordingmode mean
attr source fwdPITEntryCount
scalar CompanyNetwork.denis fwdPITEntryCount:timeavg 858.41475731638
attr recordingmode timeavg
attr source fwdPITEntryCount
scalar CompanyNetwork.denis fwdPITEntryCount:last 1015
attr recordingmode last
attr source fwdPITEntryCount
scalar CompanyNetwork.denis fwdFIBEntryCount:min 1
attr recordingmode min
attr source fwdFIBEntryCount
scalar CompanyNetwork.denis fwdFIBEntryCount:max 1
attr recordingmode max
attr source fwdFIBEntryCount
scalar CompanyNetwork.denis fwdFIBEntryCount:count 1
attr recordingmode count
attr source fwdFIBEntryCount
scalar CompanyNetwork.denis fwdFIBEntryCount:mean 1
attr recordingmode mean
attr source fwdFIBEntryCount
scalar CompanyNetwork.denis fwdFIBEntryCount:timeavg 1
attr recordingmode timeavg
attr source fwdFIBEntryCount
scalar CompanyNetwork.denis fwdFIBEntryCount:last 1
attr recordingmode last
attr source fwdFIBEntryCount
scalar CompanyNetwork.denis fwdCacheRemovalsBytes:count 0
attr recordingmode count
attr source fwdCacheRemovalsBytes
scalar CompanyNetwork.denis fwdCacheRemovalsBytes:mean nan
attr recordingmode mean
attr source fwdCacheRemovalsBytes
scalar CompanyNetwork.denis fwdCacheRemovalsBytes:sum 0
attr recordingmode sum
attr source fwdCacheRemovalsBytes
scalar CompanyNetwork.denis fwdCacheAdditionsBytes:count 146
attr recordingmode count
attr source fwdCacheAdditionsBytes
scalar CompanyNetwork.denis fwdCacheAdditionsBytes:mean 973.58904109589
attr recordingmode mean
attr source fwdCacheAdditionsBytes
scalar CompanyNetwork.denis fwdCacheAdditionsBytes:sum 142144
attr recordingmode sum
attr source fwdCacheAdditionsBytes
scalar CompanyNetwork.denis fwdCacheSizeBytes:min 36
attr recordingmode min
attr source fwdCacheSizeBytes
scalar CompanyNetwork.denis fwdCacheSizeBytes:max 142144
attr recordingmode max
attr source fwdCacheSizeBytes
scalar CompanyNetwork.denis fwdCacheSizeBytes:count 146
attr recordingmode count
attr source fwdCacheSizeBytes
scalar CompanyNetwork.denis fwdCacheSizeBytes:mean 69795.863013699
attr recordingmode mean
attr source fwdCacheSizeBytes
scalar CompanyNetwork.denis fwdCacheSizeBytes:timeavg 82827.993245888
attr recordingmode timeavg
attr source fwdCacheSizeBytes
scalar CompanyNetwork.denis fwdCacheSizeBytes:last 142144
attr recordingmode last
attr source fwdCacheSizeBytes
scalar CompanyNetwork.denis fwdTotalContentObjsBytesSent:count 0
attr recordingmode count
attr source fwdTotalContentObjsBytesSent
scalar CompanyNetwork.denis fwdTotalContentObjsBytesSent:mean nan
attr recordingmode mean
attr source fwdTotalContentObjsBytesSent
scalar CompanyNetwork.denis fwdTotalContentObjsBytesSent:sum 0
attr recordingmode sum
attr source fwdTotalContentObjsBytesSent
scalar CompanyNetwork.denis fwdTotalInterestRtnsBytesSent:count 0
attr recordingmode count
attr source fwdTotalInterestRtnsBytesSent
scalar CompanyNetwork.denis fwdTotalInterestRtnsBytesSent:mean nan
attr recordingmode mean
attr source fwdTotalInterestRtnsBytesSent
scalar CompanyNetwork.denis fwdTotalInterestRtnsBytesSent:sum 0
attr recordingmode sum
attr source fwdTotalInterestRtnsBytesSent
scalar CompanyNetwork.denis fwdTotalInterestsBytesSent:count 146
attr recordingmode count
attr source fwdTotalInterestsBytesSent
scalar CompanyNetwork.denis fwdTotalInterestsBytesSent:mean 16
attr recordingmode mean
attr source fwdTotalInterestsBytesSent
scalar CompanyNetwork.denis fwdTotalInterestsBytesSent:sum 2336
attr recordingmode sum
attr source fwdTotalInterestsBytesSent
scalar CompanyNetwork.denis fwdTotalContentObjsBytesReceived:count 146
attr recordingmode count
attr source fwdTotalContentObjsBytesReceived
scalar CompanyNetwork.denis fwdTotalContentObjsBytesReceived:mean 989.58904109589
attr recordingmode mean
attr source fwdTotalContentObjsBytesReceived
scalar CompanyNetwork.denis fwdTotalContentObjsBytesReceived:sum 144480
attr recordingmode sum
attr source fwdTotalContentObjsBytesReceived
scalar CompanyNetwork.denis fwdTotalInterestRtnsBytesReceived:count 0
attr recordingmode count
attr source fwdTotalInterestRtnsBytesReceived
scalar CompanyNetwork.denis fwdTotalInterestRtnsBytesReceived:mean nan
attr recordingmode mean
attr source fwdTotalInterestRtnsBytesReceived
scalar CompanyNetwork.denis fwdTotalInterestRtnsBytesReceived:sum 0
attr recordingmode sum
attr source fwdTotalInterestRtnsBytesReceived
scalar CompanyNetwork.denis fwdTotalInterestsBytesReceived:count 1015
attr recordingmode count
attr source fwdTotalInterestsBytesReceived
scalar CompanyNetwork.denis fwdTotalInterestsBytesReceived:mean 16
attr recordingmode mean
attr source fwdTotalInterestsBytesReceived
scalar CompanyNetwork.denis fwdTotalInterestsBytesReceived:sum 16240
attr recordingmode sum
attr source fwdTotalInterestsBytesReceived
scalar CompanyNetwork.denis appTotalDataBytesSent:count 0
attr recordingmode count
attr source appTotalDataBytesSent
scalar CompanyNetwork.denis appTotalDataBytesSent:mean nan
attr recordingmode mean
attr source appTotalDataBytesSent
scalar CompanyNetwork.denis appTotalDataBytesSent:sum 0
attr recordingmode sum
attr source appTotalDataBytesSent
scalar CompanyNetwork.denis appTotalContentObjsBytesSent:count 0
attr recordingmode count
attr source appTotalContentObjsBytesSent
scalar CompanyNetwork.denis appTotalContentObjsBytesSent:mean nan
attr recordingmode mean
attr source appTotalContentObjsBytesSent
scalar CompanyNetwork.denis appTotalContentObjsBytesSent:sum 0
attr recordingmode sum
attr source appTotalContentObjsBytesSent
scalar CompanyNetwork.denis appTotalInterestsBytesReceived:count 0
attr recordingmode count
attr source appTotalInterestsBytesReceived
scalar CompanyNetwork.denis appTotalInterestsBytesReceived:mean nan
attr recordingmode mean
attr source appTotalInterestsBytesReceived
scalar CompanyNetwork.denis appTotalInterestsBytesReceived:sum 0
attr recordingmode sum
attr source appTotalInterestsBytesReceived
scalar CompanyNetwork.denis appTotalDataBytesReceived:count 956
attr recordingmode count
attr source appTotalDataBytesReceived
scalar CompanyNetwork.denis appTotalDataBytesReceived:mean 547.24267782427
attr recordingmode mean
attr source appTotalDataBytesReceived
scalar CompanyNetwork.denis appTotalDataBytesReceived:sum 523164
attr recordingmode sum
attr source appTotalDataBytesReceived
scalar CompanyNetwork.denis appTotalContentObjsBytesReceived:count 956
attr recordingmode count
attr source appTotalContentObjsBytesReceived
scalar CompanyNetwork.denis appTotalContentObjsBytesReceived:mean 563.24267782427
attr recordingmode mean
attr source appTotalContentObjsBytesReceived
scalar CompanyNetwork.denis appTotalContentObjsBytesReceived:sum 538460
attr recordingmode sum
attr source appTotalContentObjsBytesReceived
scalar CompanyNetwork.denis appRetransmissionInterestsBytesSent:count 0
attr recordingmode count
attr source appRetransmissionInterestsBytesSent
scalar CompanyNetwork.denis appRetransmissionInterestsBytesSent:mean nan
attr recordingmode mean
attr source appRetransmissionInterestsBytesSent
scalar CompanyNetwork.denis appRetransmissionInterestsBytesSent:sum 0
attr recordingmode sum
attr source appRetransmissionInterestsBytesSent
scalar CompanyNetwork.denis appTotalInterestsBytesSent:count 956
attr recordingmode count
attr source appTotalInterestsBytesSent
scalar CompanyNetwork.denis appTotalInterestsBytesSent:mean 16
attr recordingmode mean
attr source appTotalInterestsBytesSent
scalar CompanyNetwork.denis appTotalInterestsBytesSent:sum 15296
attr recordingmode sum
attr source appTotalInterestsBytesSent
scalar CompanyNetwork.denis appSegmentDownloadDuration:min 0
attr recordingmode min
attr source appSegmentDownloadDuration
scalar CompanyNetwork.denis appSegmentDownloadDuration:max 0.000184128
attr recordingmode max
attr source appSegmentDownloadDuration
scalar CompanyNetwork.denis appSegmentDownloadDuration:count 224
attr recordingmode count
attr source appSegmentDownloadDuration
scalar CompanyNetwork.denis appSegmentDownloadDuration:mean 0.00011508
attr recordingmode mean
attr source appSegmentDownloadDuration
scalar CompanyNetwork.denis appContentDownloadDuration:min 0
attr recordingmode min
attr source appContentDownloadDuration
scalar CompanyNetwork.denis appContentDownloadDuration:max 0.00184128
attr recordingmode max
attr source appContentDownloadDuration
scalar CompanyNetwork.denis appContentDownloadDuration:count 30
attr recordingmode count
attr source appContentDownloadDuration
scalar CompanyNetwork.denis appContentDownloadDuration:mean 0.000859264
attr recordingmode mean
attr source appContentDownloadDuration
par CompanyNetwork typename "\"inbaversim.simulations.CompanyNetwork\""
scalar CompanyNetwork fwdNetworkCacheMissRatio:min 0.77959632418528
attr recordingmode min
attr source fwdNetworkCacheMissRatio
scalar CompanyNetwork fwdNetworkCacheMissRatio:max 1
attr recordingmode max
attr source fwdNetworkCacheMissRatio
scalar CompanyNetwork fwdNetworkCacheMissRatio:count 48207
attr recordingmode count
attr source fwdNetworkCacheMissRatio
scalar CompanyNetwork fwdNetworkCacheMissRatio:last 0.77959632418528
attr recordingmode last
attr source fwdNetworkCacheMissRatio
scalar CompanyNetwork fwdNetworkCacheHitRatio:min 0
attr recordingmode min
attr source fwdNetworkCacheHitRatio
scalar CompanyNetwork fwdNetworkCacheHitRatio:max 0.22040367581472
attr recordingmode max
attr source fwdNetworkCacheHitRatio
scalar CompanyNetwork fwdNetworkCacheHitRatio:count 48207
attr recordingmode count
attr source fwdNetworkCacheHitRatio
scalar CompanyNetwork fwdNetworkCacheHitRatio:last 0.22040367581472
attr recordingmode last
attr source fwdNetworkCacheHitRatio
scalar CompanyNetwork appNetworkInterestRetransmissionCount:last 5614
attr recordingmode last
attr source appNetworkInterestRetransmissionCount

